 *******************************************************************************

         NASA-GLENN CHEMICAL EQUILIBRIUM PROGRAM CEA2, FEBRUARY 5, 2004
                   BY  BONNIE MCBRIDE AND SANFORD GORDON
      REFS: NASA RP-1311, PART I, 1994 AND NASA RP-1311, PART II, 1996

 *******************************************************************************



  
 ### CEA analysis performed on Tue 12-Mar-2024 23:35:23
  
 # Problem Type: "Rocket" (Infinite Area Combustor)
  
 prob case=_______________2319 ro equilibrium frozen  nfz=5   ions
  
 # Pressure (1 value):
 p,atm= 200
  
 # Oxidizer/Fuel Wt. ratio (30 values):
 o/f= 2, 2.2, 2.4, 2.6, 2.8, 3, 3.2, 3.4, 3.6, 3.8, 4, 4.2, 4.4, 4.6, 4.8, 5, 5.2
 , 5.4, 5.6, 5.8, 6, 6.2, 6.4, 6.6, 6.8, 7, 7.2, 7.4,
  
 # You selected the following fuels and oxidizers:
 reac
 fuel H2(L)             wt%=100.0000
 oxid O2(L)             wt%=100.0000
  
 # You selected these options for output:
 # short version of output
 output short
 # Proportions of any products will be expressed as Mole Fractions.
 # Heat will be expressed as siunits
 output siunits
 # Trace variable:
 output trace=1e-5
 # Transport properties calculated
 output transport
  
  
 # Input prepared by this script:/var/www/sites/cearun.grc.nasa.gov/cgi-bin/CEARU
 N/prepareInputFile.cgi
  
 ### IMPORTANT:  The following line is the end of your CEA input file!
 end



            THEORETICAL ROCKET PERFORMANCE ASSUMING EQUILIBRIUM

           COMPOSITION DURING EXPANSION FROM INFINITE AREA COMBUSTOR

 Pin =  2939.2 PSIA
 CASE = _______________

             REACTANT                    WT FRACTION      ENERGY      TEMP
                                          (SEE NOTE)     KJ/KG-MOL      K  
 FUEL        H2(L)                        1.0000000     -9012.000     20.270
 OXIDANT     O2(L)                        1.0000000    -12979.000     90.170

 O/F=    1.00000  %FUEL= 50.000000  R,EQ.RATIO= 7.936683  PHI,EQ.RATIO= 7.936683

                 CHAMBER   THROAT
 Pinf/P            1.0000   1.8745
 P, BAR            202.65   108.11
 T, K              977.49   826.58
 RHO, KG/CU M    1.0053 1 6.3420 0
 H, KJ/KG        -2438.06 -3604.54
 U, KJ/KG        -4453.89 -5309.16
 G, KJ/KG        -34651.1 -30844.5
 S, KJ/(KG)(K)    32.9549  32.9549

 M, (1/n)           4.032    4.032
 (dLV/dLP)t      -1.00000 -1.00000
 (dLV/dLT)p        1.0000   1.0000
 Cp, KJ/(KG)(K)    7.8107   7.6564
 GAMMAs            1.3587   1.3686
 SON VEL,M/SEC     1655.0   1527.4
 MACH NUMBER        0.000    1.000

 TRANSPORT PROPERTIES (GASES ONLY)
   CONDUCTIVITY IN UNITS OF MILLIWATTS/(CM)(K)

 VISC,MILLIPOISE  0.28364  0.25039

  WITH EQUILIBRIUM REACTIONS

 Cp, KJ/(KG)(K)    7.8107   7.6564
 CONDUCTIVITY      3.6877   3.2367
 PRANDTL NUMBER    0.6008   0.5923

  WITH FROZEN REACTIONS

 Cp, KJ/(KG)(K)    7.8107   7.6564
 CONDUCTIVITY      3.6877   3.2367
 PRANDTL NUMBER    0.6008   0.5923

 PERFORMANCE PARAMETERS

 Ae/At                      1.0000
 CSTAR, M/SEC               2092.0
 CF                         0.7301
 Ivac, M/SEC                2643.4
 Isp, M/SEC                 1527.4


 MOLE FRACTIONS

 *H2             8.7400-1 8.7400-1
 H2O             1.2600-1 1.2600-1

  * THERMODYNAMIC PROPERTIES FITTED TO 20000.K

 NOTE. WEIGHT FRACTION OF FUEL IN TOTAL FUELS AND OF OXIDANT IN TOTAL OXIDANTS

 WARNING!!  FREEZING IS NOT ALLOWED AT A SUBSONIC PRESSURE RATIO FOR nfz GREATER
 THAN 1. FROZEN PERFORMANCE CALCULATIONS WERE OMITTED (ROCKET)










              THEORETICAL ROCKET PERFORMANCE ASSUMING EQUILIBRIUM

           COMPOSITION DURING EXPANSION FROM INFINITE AREA COMBUSTOR

 Pin =  2939.2 PSIA
 CASE = _______________

             REACTANT                    WT FRACTION      ENERGY      TEMP
                                          (SEE NOTE)     KJ/KG-MOL      K  
 FUEL        H2(L)                        1.0000000     -9012.000     20.270
 OXIDANT     O2(L)                        1.0000000    -12979.000     90.170

 O/F=    1.20000  %FUEL= 45.454545  R,EQ.RATIO= 6.613902  PHI,EQ.RATIO= 6.613902

                 CHAMBER   THROAT
 Pinf/P            1.0000   1.8659
 P, BAR            202.65   108.61
 T, K             1157.58   985.52
 RHO, KG/CU M    9.3379 0 5.8783 0
 H, KJ/KG        -2253.29 -3504.07
 U, KJ/KG        -4423.48 -5351.70
 G, KJ/KG        -38890.5 -34695.7
 S, KJ/(KG)(K)    31.6499  31.6499

 M, (1/n)           4.435    4.435
 (dLV/dLP)t      -1.00000 -1.00000
 (dLV/dLT)p        1.0000   1.0000
 Cp, KJ/(KG)(K)    7.3717   7.1717
 GAMMAs            1.3411   1.3539
 SON VEL,M/SEC     1706.0   1581.6
 MACH NUMBER        0.000    1.000

 TRANSPORT PROPERTIES (GASES ONLY)
   CONDUCTIVITY IN UNITS OF MILLIWATTS/(CM)(K)

 VISC,MILLIPOISE  0.33356  0.29624

  WITH EQUILIBRIUM REACTIONS

 Cp, KJ/(KG)(K)    7.3717   7.1717
 CONDUCTIVITY      4.0916   3.5888
 PRANDTL NUMBER    0.6010   0.5920

  WITH FROZEN REACTIONS

 Cp, KJ/(KG)(K)    7.3717   7.1717
 CONDUCTIVITY      4.0916   3.5888
 PRANDTL NUMBER    0.6010   0.5920

 PERFORMANCE PARAMETERS

 Ae/At                      1.0000
 CSTAR, M/SEC               2179.7
 CF                         0.7256
 Ivac, M/SEC                2749.8
 Isp, M/SEC                 1581.6


 MOLE FRACTIONS

 *H2             8.4880-1 8.4880-1
 H2O             1.5120-1 1.5120-1

  * THERMODYNAMIC PROPERTIES FITTED TO 20000.K

 NOTE. WEIGHT FRACTION OF FUEL IN TOTAL FUELS AND OF OXIDANT IN TOTAL OXIDANTS

 WARNING!!  FREEZING IS NOT ALLOWED AT A SUBSONIC PRESSURE RATIO FOR nfz GREATER
 THAN 1. FROZEN PERFORMANCE CALCULATIONS WERE OMITTED (ROCKET)










              THEORETICAL ROCKET PERFORMANCE ASSUMING EQUILIBRIUM

           COMPOSITION DURING EXPANSION FROM INFINITE AREA COMBUSTOR

 Pin =  2939.2 PSIA
 CASE = _______________

             REACTANT                    WT FRACTION      ENERGY      TEMP
                                          (SEE NOTE)     KJ/KG-MOL      K  
 FUEL        H2(L)                        1.0000000     -9012.000     20.270
 OXIDANT     O2(L)                        1.0000000    -12979.000     90.170

 O/F=    1.40000  %FUEL= 41.666667  R,EQ.RATIO= 5.669059  PHI,EQ.RATIO= 5.669059

                 CHAMBER   THROAT
 Pinf/P            1.0000   1.8564
 P, BAR            202.65   109.16
 T, K             1329.19  1139.66
 RHO, KG/CU M    8.8716 0 5.5736 0
 H, KJ/KG        -2099.32 -3409.68
 U, KJ/KG        -4383.58 -5368.24
 G, KJ/KG        -42500.6 -38050.2
 S, KJ/(KG)(K)    30.3954  30.3954

 M, (1/n)           4.838    4.838
 (dLV/dLP)t      -1.00000 -1.00000
 (dLV/dLT)p        1.0000   1.0000
 Cp, KJ/(KG)(K)    7.0268   6.8016
 GAMMAs            1.3238   1.3381
 SON VEL,M/SEC     1738.9   1618.9
 MACH NUMBER        0.000    1.000

 TRANSPORT PROPERTIES (GASES ONLY)
   CONDUCTIVITY IN UNITS OF MILLIWATTS/(CM)(K)

 VISC,MILLIPOISE  0.38165  0.34101

  WITH EQUILIBRIUM REACTIONS

 Cp, KJ/(KG)(K)    7.0268   6.8016
 CONDUCTIVITY      4.4545   3.9064
 PRANDTL NUMBER    0.6020   0.5937

  WITH FROZEN REACTIONS

 Cp, KJ/(KG)(K)    7.0267   6.8016
 CONDUCTIVITY      4.4544   3.9064
 PRANDTL NUMBER    0.6020   0.5937

 PERFORMANCE PARAMETERS

 Ae/At                      1.0000
 CSTAR, M/SEC               2245.9
 CF                         0.7208
 Ivac, M/SEC                2828.7
 Isp, M/SEC                 1618.9


 MOLE FRACTIONS

 *H2             8.2360-1 8.2360-1
 H2O             1.7640-1 1.7640-1

  * THERMODYNAMIC PROPERTIES FITTED TO 20000.K

 NOTE. WEIGHT FRACTION OF FUEL IN TOTAL FUELS AND OF OXIDANT IN TOTAL OXIDANTS

 WARNING!!  FREEZING IS NOT ALLOWED AT A SUBSONIC PRESSURE RATIO FOR nfz GREATER
 THAN 1. FROZEN PERFORMANCE CALCULATIONS WERE OMITTED (ROCKET)










              THEORETICAL ROCKET PERFORMANCE ASSUMING EQUILIBRIUM

           COMPOSITION DURING EXPANSION FROM INFINITE AREA COMBUSTOR

 Pin =  2939.2 PSIA
 CASE = _______________

             REACTANT                    WT FRACTION      ENERGY      TEMP
                                          (SEE NOTE)     KJ/KG-MOL      K  
 FUEL        H2(L)                        1.0000000     -9012.000     20.270
 OXIDANT     O2(L)                        1.0000000    -12979.000     90.170

 O/F=    1.60000  %FUEL= 38.461538  R,EQ.RATIO= 4.960427  PHI,EQ.RATIO= 4.960427

                 CHAMBER   THROAT
 Pinf/P            1.0000   1.8469
 P, BAR            202.65   109.72
 T, K             1492.65  1288.53
 RHO, KG/CU M    8.5584 0 5.3679 0
 H, KJ/KG        -1969.03 -3320.56
 U, KJ/KG        -4336.89 -5364.61
 G, KJ/KG        -45588.5 -40975.0
 S, KJ/(KG)(K)    29.2229  29.2229

 M, (1/n)           5.241    5.241
 (dLV/dLP)t      -1.00000 -1.00000
 (dLV/dLT)p        1.0000   1.0000
 Cp, KJ/(KG)(K)    6.7336   6.5068
 GAMMAs            1.3082   1.3224
 SON VEL,M/SEC     1760.0   1644.1
 MACH NUMBER        0.000    1.000

 TRANSPORT PROPERTIES (GASES ONLY)
   CONDUCTIVITY IN UNITS OF MILLIWATTS/(CM)(K)

 VISC,MILLIPOISE  0.42817  0.38452

  WITH EQUILIBRIUM REACTIONS

 Cp, KJ/(KG)(K)    6.7336   6.5068
 CONDUCTIVITY      4.7753   4.1957
 PRANDTL NUMBER    0.6038   0.5963

  WITH FROZEN REACTIONS

 Cp, KJ/(KG)(K)    6.7331   6.5067
 CONDUCTIVITY      4.7745   4.1957
 PRANDTL NUMBER    0.6038   0.5963

 PERFORMANCE PARAMETERS

 Ae/At                      1.0000
 CSTAR, M/SEC               2296.2
 CF                         0.7160
 Ivac, M/SEC                2887.4
 Isp, M/SEC                 1644.1


 MOLE FRACTIONS

 *H2             7.9840-1 7.9840-1
 H2O             2.0160-1 2.0160-1

  * THERMODYNAMIC PROPERTIES FITTED TO 20000.K

 NOTE. WEIGHT FRACTION OF FUEL IN TOTAL FUELS AND OF OXIDANT IN TOTAL OXIDANTS

 WARNING!!  FREEZING IS NOT ALLOWED AT A SUBSONIC PRESSURE RATIO FOR nfz GREATER
 THAN 1. FROZEN PERFORMANCE CALCULATIONS WERE OMITTED (ROCKET)










              THEORETICAL ROCKET PERFORMANCE ASSUMING EQUILIBRIUM

           COMPOSITION DURING EXPANSION FROM INFINITE AREA COMBUSTOR

 Pin =  2939.2 PSIA
 CASE = _______________

             REACTANT                    WT FRACTION      ENERGY      TEMP
                                          (SEE NOTE)     KJ/KG-MOL      K  
 FUEL        H2(L)                        1.0000000     -9012.000     20.270
 OXIDANT     O2(L)                        1.0000000    -12979.000     90.170

 O/F=    1.80000  %FUEL= 35.714286  R,EQ.RATIO= 4.409268  PHI,EQ.RATIO= 4.409268

                 CHAMBER   THROAT
 Pinf/P            1.0000   1.8381
 P, BAR            202.65   110.25
 T, K             1648.62  1431.97
 RHO, KG/CU M    8.3447 0 5.2267 0
 H, KJ/KG        -1857.36 -3236.82
 U, KJ/KG        -4285.85 -5346.17
 G, KJ/KG        -48249.3 -43532.2
 S, KJ/(KG)(K)    28.1398  28.1398

 M, (1/n)           5.644    5.644
 (dLV/dLP)t      -1.00000 -1.00000
 (dLV/dLT)p        1.0000   1.0000
 Cp, KJ/(KG)(K)    6.4750   6.2565
 GAMMAs            1.2945   1.3079
 SON VEL,M/SEC     1773.1   1661.0
 MACH NUMBER        0.000    1.000

 TRANSPORT PROPERTIES (GASES ONLY)
   CONDUCTIVITY IN UNITS OF MILLIWATTS/(CM)(K)

 VISC,MILLIPOISE  0.47322  0.42687

  WITH EQUILIBRIUM REACTIONS

 Cp, KJ/(KG)(K)    6.4750   6.2565
 CONDUCTIVITY      5.0575   4.4549
 PRANDTL NUMBER    0.6058   0.5995

  WITH FROZEN REACTIONS

 Cp, KJ/(KG)(K)    6.4727   6.2562
 CONDUCTIVITY      5.0538   4.4545
 PRANDTL NUMBER    0.6061   0.5995

 PERFORMANCE PARAMETERS

 Ae/At                      1.0000
 CSTAR, M/SEC               2334.3
 CF                         0.7116
 Ivac, M/SEC                2930.9
 Isp, M/SEC                 1661.0


 MOLE FRACTIONS

 *H2             7.7320-1 7.7320-1
 H2O             2.2679-1 2.2679-1

  * THERMODYNAMIC PROPERTIES FITTED TO 20000.K

 NOTE. WEIGHT FRACTION OF FUEL IN TOTAL FUELS AND OF OXIDANT IN TOTAL OXIDANTS

 WARNING!!  FREEZING IS NOT ALLOWED AT A SUBSONIC PRESSURE RATIO FOR nfz GREATER
 THAN 1. FROZEN PERFORMANCE CALCULATIONS WERE OMITTED (ROCKET)





              THEORETICAL ROCKET PERFORMANCE ASSUMING EQUILIBRIUM

           COMPOSITION DURING EXPANSION FROM INFINITE AREA COMBUSTOR

 Pin =  2939.2 PSIA
 CASE = _______________

             REACTANT                    WT FRACTION      ENERGY      TEMP
                                          (SEE NOTE)     KJ/KG-MOL      K  
 FUEL        H2(L)                        1.0000000     -9012.000     20.270
 OXIDANT     O2(L)                        1.0000000    -12979.000     90.170

 O/F=    2.00000  %FUEL= 33.333333  R,EQ.RATIO= 3.968341  PHI,EQ.RATIO= 3.968341

                 CHAMBER   THROAT
 Pinf/P            1.0000   1.8302
 P, BAR            202.65   110.73
 T, K             1797.78  1570.17
 RHO, KG/CU M    8.1989 0 5.1292 0
 H, KJ/KG        -1760.57 -3158.32
 U, KJ/KG        -4232.25 -5317.05
 G, KJ/KG        -50559.7 -45779.3
 S, KJ/(KG)(K)    27.1442  27.1442

 M, (1/n)           6.048    6.048
 (dLV/dLP)t      -1.00001 -1.00000
 (dLV/dLT)p        1.0002   1.0000
 Cp, KJ/(KG)(K)    6.2442   6.0361
 GAMMAs            1.2825   1.2950
 SON VEL,M/SEC     1780.4   1672.0
 MACH NUMBER        0.000    1.000

 TRANSPORT PROPERTIES (GASES ONLY)
   CONDUCTIVITY IN UNITS OF MILLIWATTS/(CM)(K)

 VISC,MILLIPOISE  0.51685  0.46807

  WITH EQUILIBRIUM REACTIONS

 Cp, KJ/(KG)(K)    6.2442   6.0361
 CONDUCTIVITY      5.3080   4.6853
 PRANDTL NUMBER    0.6080   0.6030

  WITH FROZEN REACTIONS

 Cp, KJ/(KG)(K)    6.2372   6.0347
 CONDUCTIVITY      5.2952   4.6831
 PRANDTL NUMBER    0.6088   0.6032

 PERFORMANCE PARAMETERS

 Ae/At                      1.0000
 CSTAR, M/SEC               2363.0
 CF                         0.7076
 Ivac, M/SEC                2963.1
 Isp, M/SEC                 1672.0


 MOLE FRACTIONS

 *H              2.1382-5 3.2438-6
 *H2             7.4799-1 7.4800-1
 H2O             2.5199-1 2.5199-1

  * THERMODYNAMIC PROPERTIES FITTED TO 20000.K

 NOTE. WEIGHT FRACTION OF FUEL IN TOTAL FUELS AND OF OXIDANT IN TOTAL OXIDANTS

 WARNING!!  FREEZING IS NOT ALLOWED AT A SUBSONIC PRESSURE RATIO FOR nfz GREATER
 THAN 1. FROZEN PERFORMANCE CALCULATIONS WERE OMITTED (ROCKET)










              THEORETICAL ROCKET PERFORMANCE ASSUMING EQUILIBRIUM

           COMPOSITION DURING EXPANSION FROM INFINITE AREA COMBUSTOR

 Pin =  2939.2 PSIA
 CASE = _______________

             REACTANT                    WT FRACTION      ENERGY      TEMP
                                          (SEE NOTE)     KJ/KG-MOL      K  
 FUEL        H2(L)                        1.0000000     -9012.000     20.270
 OXIDANT     O2(L)                        1.0000000    -12979.000     90.170

 O/F=    2.20000  %FUEL= 31.250000  R,EQ.RATIO= 3.607583  PHI,EQ.RATIO= 3.607583

                 CHAMBER   THROAT
 Pinf/P            1.0000   1.8231
 P, BAR            202.65   111.16
 T, K             1940.66  1703.43
 RHO, KG/CU M    8.1014 0 5.0628 0
 H, KJ/KG        -1675.89 -3084.73
 U, KJ/KG        -4177.31 -5280.30
 G, KJ/KG        -52579.1 -47765.2
 S, KJ/(KG)(K)    26.2298  26.2298

 M, (1/n)           6.451    6.451
 (dLV/dLP)t      -1.00002 -1.00000
 (dLV/dLT)p        1.0005   1.0001
 Cp, KJ/(KG)(K)    6.0392   5.8389
 GAMMAs            1.2716   1.2833
 SON VEL,M/SEC     1783.5   1678.6
 MACH NUMBER        0.000    1.000

 TRANSPORT PROPERTIES (GASES ONLY)
   CONDUCTIVITY IN UNITS OF MILLIWATTS/(CM)(K)

 VISC,MILLIPOISE  0.55908  0.50814

  WITH EQUILIBRIUM REACTIONS

 Cp, KJ/(KG)(K)    6.0392   5.8389
 CONDUCTIVITY      5.5365   4.8907
 PRANDTL NUMBER    0.6098   0.6067

  WITH FROZEN REACTIONS

 Cp, KJ/(KG)(K)    6.0218   5.8347
 CONDUCTIVITY      5.5019   4.8831
 PRANDTL NUMBER    0.6119   0.6072

 PERFORMANCE PARAMETERS

 Ae/At                      1.0000
 CSTAR, M/SEC               2384.6
 CF                         0.7039
 Ivac, M/SEC                2986.6
 Isp, M/SEC                 1678.6


 MOLE FRACTIONS

 *H              6.4107-5 1.2286-5
 *H2             7.2275-1 7.2280-1
 H2O             2.7718-1 2.7719-1

  * THERMODYNAMIC PROPERTIES FITTED TO 20000.K

 NOTE. WEIGHT FRACTION OF FUEL IN TOTAL FUELS AND OF OXIDANT IN TOTAL OXIDANTS

 WARNING!!  FREEZING IS NOT ALLOWED AT A SUBSONIC PRESSURE RATIO FOR nfz GREATER
 THAN 1. FROZEN PERFORMANCE CALCULATIONS WERE OMITTED (ROCKET)










              THEORETICAL ROCKET PERFORMANCE ASSUMING EQUILIBRIUM

           COMPOSITION DURING EXPANSION FROM INFINITE AREA COMBUSTOR

 Pin =  2939.2 PSIA
 CASE = _______________

             REACTANT                    WT FRACTION      ENERGY      TEMP
                                          (SEE NOTE)     KJ/KG-MOL      K  
 FUEL        H2(L)                        1.0000000     -9012.000     20.270
 OXIDANT     O2(L)                        1.0000000    -12979.000     90.170

 O/F=    2.40000  %FUEL= 29.411765  R,EQ.RATIO= 3.306951  PHI,EQ.RATIO= 3.306951

                 CHAMBER   THROAT
 Pinf/P            1.0000   1.8167
 P, BAR            202.65   111.55
 T, K             2077.69  1832.03
 RHO, KG/CU M    8.0396 0 5.0193 0
 H, KJ/KG        -1601.17 -3015.59
 U, KJ/KG        -4121.80 -5238.05
 G, KJ/KG        -54352.6 -49529.8
 S, KJ/(KG)(K)    25.3895  25.3895

 M, (1/n)           6.853    6.854
 (dLV/dLP)t      -1.00004 -1.00001
 (dLV/dLT)p        1.0011   1.0003
 Cp, KJ/(KG)(K)    5.8600   5.6622
 GAMMAs            1.2618   1.2728
 SON VEL,M/SEC     1783.4   1681.9
 MACH NUMBER        0.000    1.000

 TRANSPORT PROPERTIES (GASES ONLY)
   CONDUCTIVITY IN UNITS OF MILLIWATTS/(CM)(K)

 VISC,MILLIPOISE  0.59992  0.54707

  WITH EQUILIBRIUM REACTIONS

 Cp, KJ/(KG)(K)    5.8600   5.6622
 CONDUCTIVITY      5.7553   5.0770
 PRANDTL NUMBER    0.6108   0.6101

  WITH FROZEN REACTIONS

 Cp, KJ/(KG)(K)    5.8237   5.6518
 CONDUCTIVITY      5.6769   5.0563
 PRANDTL NUMBER    0.6154   0.6115

 PERFORMANCE PARAMETERS

 Ae/At                      1.0000
 CSTAR, M/SEC               2400.5
 CF                         0.7007
 Ivac, M/SEC                3003.3
 Isp, M/SEC                 1681.9


 MOLE FRACTIONS

 *H              1.5922-4 3.6932-5
 *H2             6.9747-1 6.9758-1
 H2O             3.0236-1 3.0239-1

  * THERMODYNAMIC PROPERTIES FITTED TO 20000.K

 NOTE. WEIGHT FRACTION OF FUEL IN TOTAL FUELS AND OF OXIDANT IN TOTAL OXIDANTS

 WARNING!!  FREEZING IS NOT ALLOWED AT A SUBSONIC PRESSURE RATIO FOR nfz GREATER
 THAN 1. FROZEN PERFORMANCE CALCULATIONS WERE OMITTED (ROCKET)










              THEORETICAL ROCKET PERFORMANCE ASSUMING EQUILIBRIUM

           COMPOSITION DURING EXPANSION FROM INFINITE AREA COMBUSTOR

 Pin =  2939.2 PSIA
 CASE = _______________

             REACTANT                    WT FRACTION      ENERGY      TEMP
                                          (SEE NOTE)     KJ/KG-MOL      K  
 FUEL        H2(L)                        1.0000000     -9012.000     20.270
 OXIDANT     O2(L)                        1.0000000    -12979.000     90.170

 O/F=    2.60000  %FUEL= 27.777778  R,EQ.RATIO= 3.052570  PHI,EQ.RATIO= 3.052570

                 CHAMBER   THROAT
 Pinf/P            1.0000   1.8108
 P, BAR            202.65   111.91
 T, K             2209.12  1956.23
 RHO, KG/CU M    8.0053 0 4.9931 0
 H, KJ/KG        -1534.75 -2950.42
 U, KJ/KG        -4066.19 -5191.77
 G, KJ/KG        -55914.2 -51104.9
 S, KJ/(KG)(K)    24.6159  24.6159

 M, (1/n)           7.256    7.257
 (dLV/dLP)t      -1.00009 -1.00002
 (dLV/dLT)p        1.0023   1.0007
 Cp, KJ/(KG)(K)    5.7080   5.5055
 GAMMAs            1.2525   1.2632
 SON VEL,M/SEC     1780.6   1682.7
 MACH NUMBER        0.000    1.000

 TRANSPORT PROPERTIES (GASES ONLY)
   CONDUCTIVITY IN UNITS OF MILLIWATTS/(CM)(K)

 VISC,MILLIPOISE  0.63936  0.58487

  WITH EQUILIBRIUM REACTIONS

 Cp, KJ/(KG)(K)    5.7080   5.5055
 CONDUCTIVITY      5.9782   5.2526
 PRANDTL NUMBER    0.6105   0.6130

  WITH FROZEN REACTIONS

 Cp, KJ/(KG)(K)    5.6404   5.4831
 CONDUCTIVITY      5.8230   5.2049
 PRANDTL NUMBER    0.6193   0.6161

 PERFORMANCE PARAMETERS

 Ae/At                      1.0000
 CSTAR, M/SEC               2412.0
 CF                         0.6976
 Ivac, M/SEC                3014.7
 Isp, M/SEC                 1682.7


 MOLE FRACTIONS

 *H              3.4203-4 9.3047-5
 *H2             6.7213-1 6.7233-1
 H2O             3.2751-1 3.2757-1
 *OH             2.6311-5 4.7198-6

  * THERMODYNAMIC PROPERTIES FITTED TO 20000.K

 NOTE. WEIGHT FRACTION OF FUEL IN TOTAL FUELS AND OF OXIDANT IN TOTAL OXIDANTS

 WARNING!!  FREEZING IS NOT ALLOWED AT A SUBSONIC PRESSURE RATIO FOR nfz GREATER
 THAN 1. FROZEN PERFORMANCE CALCULATIONS WERE OMITTED (ROCKET)










              THEORETICAL ROCKET PERFORMANCE ASSUMING EQUILIBRIUM

           COMPOSITION DURING EXPANSION FROM INFINITE AREA COMBUSTOR

 Pin =  2939.2 PSIA
 CASE = _______________

             REACTANT                    WT FRACTION      ENERGY      TEMP
                                          (SEE NOTE)     KJ/KG-MOL      K  
 FUEL        H2(L)                        1.0000000     -9012.000     20.270
 OXIDANT     O2(L)                        1.0000000    -12979.000     90.170

 O/F=    2.80000  %FUEL= 26.315789  R,EQ.RATIO= 2.834530  PHI,EQ.RATIO= 2.834530

                 CHAMBER   THROAT
 Pinf/P            1.0000   1.8053
 P, BAR            202.65   112.25
 T, K             2335.09  2076.22
 RHO, KG/CU M    7.9928 0 4.9807 0
 H, KJ/KG        -1475.32 -2888.71
 U, KJ/KG        -4010.73 -5142.48
 G, KJ/KG        -57289.1 -52515.0
 S, KJ/(KG)(K)    23.9022  23.9022

 M, (1/n)           7.658    7.660
 (dLV/dLP)t      -1.00018 -1.00005
 (dLV/dLT)p        1.0043   1.0015
 Cp, KJ/(KG)(K)    5.5844   5.3693
 GAMMAs            1.2437   1.2542
 SON VEL,M/SEC     1775.7   1681.3
 MACH NUMBER        0.000    1.000

 TRANSPORT PROPERTIES (GASES ONLY)
   CONDUCTIVITY IN UNITS OF MILLIWATTS/(CM)(K)

 VISC,MILLIPOISE  0.67737  0.62152

  WITH EQUILIBRIUM REACTIONS

 Cp, KJ/(KG)(K)    5.5844   5.3693
 CONDUCTIVITY      6.2191   5.4274
 PRANDTL NUMBER    0.6082   0.6149

  WITH FROZEN REACTIONS

 Cp, KJ/(KG)(K)    5.4705   5.3266
 CONDUCTIVITY      5.9427   5.3308
 PRANDTL NUMBER    0.6235   0.6210

 PERFORMANCE PARAMETERS

 Ae/At                      1.0000
 CSTAR, M/SEC               2420.0
 CF                         0.6948
 Ivac, M/SEC                3021.8
 Isp, M/SEC                 1681.3


 MOLE FRACTIONS

 *H              6.5506-4 2.0414-4
 *H2             6.4668-1 6.4704-1
 H2O             3.5260-1 3.5274-1
 *OH             6.6950-5 1.4308-5

  * THERMODYNAMIC PROPERTIES FITTED TO 20000.K

 NOTE. WEIGHT FRACTION OF FUEL IN TOTAL FUELS AND OF OXIDANT IN TOTAL OXIDANTS

 WARNING!!  FREEZING IS NOT ALLOWED AT A SUBSONIC PRESSURE RATIO FOR nfz GREATER
 THAN 1. FROZEN PERFORMANCE CALCULATIONS WERE OMITTED (ROCKET)










              THEORETICAL ROCKET PERFORMANCE ASSUMING EQUILIBRIUM

           COMPOSITION DURING EXPANSION FROM INFINITE AREA COMBUSTOR

 Pin =  2939.2 PSIA
 CASE = _______________

             REACTANT                    WT FRACTION      ENERGY      TEMP
                                          (SEE NOTE)     KJ/KG-MOL      K  
 FUEL        H2(L)                        1.0000000     -9012.000     20.270
 OXIDANT     O2(L)                        1.0000000    -12979.000     90.170

 O/F=    3.00000  %FUEL= 25.000000  R,EQ.RATIO= 2.645561  PHI,EQ.RATIO= 2.645561

                 CHAMBER   THROAT
 Pinf/P            1.0000   1.8001
 P, BAR            202.65   112.58
 T, K             2455.63  2192.10
 RHO, KG/CU M    7.9982 0 4.9794 0
 H, KJ/KG        -1421.83 -2830.01
 U, KJ/KG        -3955.54 -5090.84
 G, KJ/KG        -58496.1 -53779.3
 S, KJ/(KG)(K)    23.2422  23.2422

 M, (1/n)           8.058    8.062
 (dLV/dLP)t      -1.00032 -1.00011
 (dLV/dLT)p        1.0075   1.0028
 Cp, KJ/(KG)(K)    5.4905   5.2550
 GAMMAs            1.2352   1.2457
 SON VEL,M/SEC     1769.1   1678.2
 MACH NUMBER        0.000    1.000

 TRANSPORT PROPERTIES (GASES ONLY)
   CONDUCTIVITY IN UNITS OF MILLIWATTS/(CM)(K)

 VISC,MILLIPOISE  0.71393  0.65702

  WITH EQUILIBRIUM REACTIONS

 Cp, KJ/(KG)(K)    5.4905   5.2550
 CONDUCTIVITY      6.4904   5.6125
 PRANDTL NUMBER    0.6039   0.6152

  WITH FROZEN REACTIONS

 Cp, KJ/(KG)(K)    5.3122   5.1810
 CONDUCTIVITY      6.0383   5.4358
 PRANDTL NUMBER    0.6281   0.6262

 PERFORMANCE PARAMETERS

 Ae/At                      1.0000
 CSTAR, M/SEC               2425.1
 CF                         0.6920
 Ivac, M/SEC                3025.4
 Isp, M/SEC                 1678.2


 MOLE FRACTIONS

 *H              1.1432-3 4.0087-4
 *H2             6.2111-1 6.2169-1
 H2O             3.7760-1 3.7787-1
 *OH             1.5085-4 3.7523-5

  * THERMODYNAMIC PROPERTIES FITTED TO 20000.K

 NOTE. WEIGHT FRACTION OF FUEL IN TOTAL FUELS AND OF OXIDANT IN TOTAL OXIDANTS

 WARNING!!  FREEZING IS NOT ALLOWED AT A SUBSONIC PRESSURE RATIO FOR nfz GREATER
 THAN 1. FROZEN PERFORMANCE CALCULATIONS WERE OMITTED (ROCKET)










              THEORETICAL ROCKET PERFORMANCE ASSUMING EQUILIBRIUM

           COMPOSITION DURING EXPANSION FROM INFINITE AREA COMBUSTOR

 Pin =  2939.2 PSIA
 CASE = _______________

             REACTANT                    WT FRACTION      ENERGY      TEMP
                                          (SEE NOTE)     KJ/KG-MOL      K  
 FUEL        H2(L)                        1.0000000     -9012.000     20.270
 OXIDANT     O2(L)                        1.0000000    -12979.000     90.170

 O/F=    3.20000  %FUEL= 23.809524  R,EQ.RATIO= 2.480213  PHI,EQ.RATIO= 2.480213

                 CHAMBER   THROAT
 Pinf/P            1.0000   1.7951
 P, BAR            202.65   112.89
 T, K             2570.71  2303.89
 RHO, KG/CU M    8.0187 0 4.9876 0
 H, KJ/KG        -1373.44 -2773.92
 U, KJ/KG        -3900.67 -5037.31
 G, KJ/KG        -59549.5 -54911.7
 S, KJ/(KG)(K)    22.6303  22.6303

 M, (1/n)           8.458    8.463
 (dLV/dLP)t      -1.00054 -1.00020
 (dLV/dLT)p        1.0120   1.0049
 Cp, KJ/(KG)(K)    5.4271   5.1641
 GAMMAs            1.2269   1.2375
 SON VEL,M/SEC     1760.9   1673.6
 MACH NUMBER        0.000    1.000

 TRANSPORT PROPERTIES (GASES ONLY)
   CONDUCTIVITY IN UNITS OF MILLIWATTS/(CM)(K)

 VISC,MILLIPOISE  0.74901  0.69134

  WITH EQUILIBRIUM REACTIONS

 Cp, KJ/(KG)(K)    5.4271   5.1641
 CONDUCTIVITY      6.8015   5.8188
 PRANDTL NUMBER    0.5977   0.6136

  WITH FROZEN REACTIONS

 Cp, KJ/(KG)(K)    5.1646   5.0449
 CONDUCTIVITY      6.1119   5.5217
 PRANDTL NUMBER    0.6329   0.6316

 PERFORMANCE PARAMETERS

 Ae/At                      1.0000
 CSTAR, M/SEC               2427.7
 CF                         0.6894
 Ivac, M/SEC                3026.0
 Isp, M/SEC                 1673.6


 MOLE FRACTIONS

 *H              1.8474-3 7.1886-4
 *H2             5.9540-1 5.9625-1
 H2O             4.0245-1 4.0294-1
 *OH             3.0751-4 8.7433-5

  * THERMODYNAMIC PROPERTIES FITTED TO 20000.K

 NOTE. WEIGHT FRACTION OF FUEL IN TOTAL FUELS AND OF OXIDANT IN TOTAL OXIDANTS

 WARNING!!  FREEZING IS NOT ALLOWED AT A SUBSONIC PRESSURE RATIO FOR nfz GREATER
 THAN 1. FROZEN PERFORMANCE CALCULATIONS WERE OMITTED (ROCKET)










              THEORETICAL ROCKET PERFORMANCE ASSUMING EQUILIBRIUM

           COMPOSITION DURING EXPANSION FROM INFINITE AREA COMBUSTOR

 Pin =  2939.2 PSIA
 CASE = _______________

             REACTANT                    WT FRACTION      ENERGY      TEMP
                                          (SEE NOTE)     KJ/KG-MOL      K  
 FUEL        H2(L)                        1.0000000     -9012.000     20.270
 OXIDANT     O2(L)                        1.0000000    -12979.000     90.170

 O/F=    3.40000  %FUEL= 22.727273  R,EQ.RATIO= 2.334318  PHI,EQ.RATIO= 2.334318

                 CHAMBER   THROAT
 Pinf/P            1.0000   1.7902
 P, BAR            202.65   113.20
 T, K             2680.26  2411.54
 RHO, KG/CU M    8.0522 0 5.0040 0
 H, KJ/KG        -1329.45 -2720.08
 U, KJ/KG        -3846.14 -4982.19
 G, KJ/KG        -60460.5 -55922.8
 S, KJ/(KG)(K)    22.0617  22.0617

 M, (1/n)           8.855    8.864
 (dLV/dLP)t      -1.00085 -1.00035
 (dLV/dLT)p        1.0181   1.0081
 Cp, KJ/(KG)(K)    5.3941   5.0980
 GAMMAs            1.2189   1.2295
 SON VEL,M/SEC     1751.5   1667.7
 MACH NUMBER        0.000    1.000

 TRANSPORT PROPERTIES (GASES ONLY)
   CONDUCTIVITY IN UNITS OF MILLIWATTS/(CM)(K)

 VISC,MILLIPOISE  0.78260  0.72446

  WITH EQUILIBRIUM REACTIONS

 Cp, KJ/(KG)(K)    5.3941   5.0980
 CONDUCTIVITY      7.1584   6.0564
 PRANDTL NUMBER    0.5897   0.6098

  WITH FROZEN REACTIONS

 Cp, KJ/(KG)(K)    5.0264   4.9173
 CONDUCTIVITY      6.1654   5.5900
 PRANDTL NUMBER    0.6380   0.6373

 PERFORMANCE PARAMETERS

 Ae/At                      1.0000
 CSTAR, M/SEC               2428.3
 CF                         0.6868
 Ivac, M/SEC                3024.1
 Isp, M/SEC                 1667.7


 MOLE FRACTIONS

 *H              2.7988-3 1.1951-3
 *H2             5.6954-1 5.7071-1
 H2O             4.2709-1 4.2791-1
 *OH             5.7655-4 1.8467-4

  * THERMODYNAMIC PROPERTIES FITTED TO 20000.K

 NOTE. WEIGHT FRACTION OF FUEL IN TOTAL FUELS AND OF OXIDANT IN TOTAL OXIDANTS

 WARNING!!  FREEZING IS NOT ALLOWED AT A SUBSONIC PRESSURE RATIO FOR nfz GREATER
 THAN 1. FROZEN PERFORMANCE CALCULATIONS WERE OMITTED (ROCKET)










              THEORETICAL ROCKET PERFORMANCE ASSUMING EQUILIBRIUM

           COMPOSITION DURING EXPANSION FROM INFINITE AREA COMBUSTOR

 Pin =  2939.2 PSIA
 CASE = _______________

             REACTANT                    WT FRACTION      ENERGY      TEMP
                                          (SEE NOTE)     KJ/KG-MOL      K  
 FUEL        H2(L)                        1.0000000     -9012.000     20.270
 OXIDANT     O2(L)                        1.0000000    -12979.000     90.170

 O/F=    3.60000  %FUEL= 21.739130  R,EQ.RATIO= 2.204634  PHI,EQ.RATIO= 2.204634

                 CHAMBER   THROAT
 Pinf/P            1.0000   1.7855
 P, BAR            202.65   113.50
 T, K             2784.19  2514.96
 RHO, KG/CU M    8.0973 0 5.0277 0
 H, KJ/KG        -1289.28 -2668.22
 U, KJ/KG        -3791.97 -4925.72
 G, KJ/KG        -61238.3 -56820.3
 S, KJ/(KG)(K)    21.5320  21.5320

 M, (1/n)           9.250    9.263
 (dLV/dLP)t      -1.00126 -1.00056
 (dLV/dLT)p        1.0262   1.0127
 Cp, KJ/(KG)(K)    5.3912   5.0580
 GAMMAs            1.2111   1.2216
 SON VEL,M/SEC     1741.0   1660.7
 MACH NUMBER        0.000    1.000

 TRANSPORT PROPERTIES (GASES ONLY)
   CONDUCTIVITY IN UNITS OF MILLIWATTS/(CM)(K)

 VISC,MILLIPOISE  0.81465  0.75635

  WITH EQUILIBRIUM REACTIONS

 Cp, KJ/(KG)(K)    5.3912   5.0580
 CONDUCTIVITY      7.5627   6.3331
 PRANDTL NUMBER    0.5807   0.6041

  WITH FROZEN REACTIONS

 Cp, KJ/(KG)(K)    4.8968   4.7974
 CONDUCTIVITY      6.2009   5.6422
 PRANDTL NUMBER    0.6433   0.6431

 PERFORMANCE PARAMETERS

 Ae/At                      1.0000
 CSTAR, M/SEC               2427.1
 CF                         0.6842
 Ivac, M/SEC                3020.1
 Isp, M/SEC                 1660.7


 MOLE FRACTIONS

 *H              4.0136-3 1.8632-3
 *H2             5.4354-1 5.4505-1
 H2O             4.5143-1 4.5273-1
 *OH             1.0071-3 3.5906-4

  * THERMODYNAMIC PROPERTIES FITTED TO 20000.K

 NOTE. WEIGHT FRACTION OF FUEL IN TOTAL FUELS AND OF OXIDANT IN TOTAL OXIDANTS

 WARNING!!  FREEZING IS NOT ALLOWED AT A SUBSONIC PRESSURE RATIO FOR nfz GREATER
 THAN 1. FROZEN PERFORMANCE CALCULATIONS WERE OMITTED (ROCKET)










              THEORETICAL ROCKET PERFORMANCE ASSUMING EQUILIBRIUM

           COMPOSITION DURING EXPANSION FROM INFINITE AREA COMBUSTOR

 Pin =  2939.2 PSIA
 CASE = _______________

             REACTANT                    WT FRACTION      ENERGY      TEMP
                                          (SEE NOTE)     KJ/KG-MOL      K  
 FUEL        H2(L)                        1.0000000     -9012.000     20.270
 OXIDANT     O2(L)                        1.0000000    -12979.000     90.170

 O/F=    3.80000  %FUEL= 20.833333  R,EQ.RATIO= 2.088601  PHI,EQ.RATIO= 2.088601

                 CHAMBER   THROAT
 Pinf/P            1.0000   1.7808
 P, BAR            202.65   113.80
 T, K             2882.44  2614.00
 RHO, KG/CU M    8.1526 0 5.0578 0
 H, KJ/KG        -1252.46 -2618.13
 U, KJ/KG        -3738.18 -4868.10
 G, KJ/KG        -61891.4 -57609.8
 S, KJ/(KG)(K)    21.0374  21.0374

 M, (1/n)           9.642    9.660
 (dLV/dLP)t      -1.00180 -1.00085
 (dLV/dLT)p        1.0364   1.0188
 Cp, KJ/(KG)(K)    5.4174   5.0449
 GAMMAs            1.2037   1.2139
 SON VEL,M/SEC     1729.7   1652.7
 MACH NUMBER        0.000    1.000

 TRANSPORT PROPERTIES (GASES ONLY)
   CONDUCTIVITY IN UNITS OF MILLIWATTS/(CM)(K)

 VISC,MILLIPOISE  0.84517  0.78697

  WITH EQUILIBRIUM REACTIONS

 Cp, KJ/(KG)(K)    5.4174   5.0449
 CONDUCTIVITY      8.0128   6.6540
 PRANDTL NUMBER    0.5714   0.5967

  WITH FROZEN REACTIONS

 Cp, KJ/(KG)(K)    4.7749   4.6844
 CONDUCTIVITY      6.2199   5.6795
 PRANDTL NUMBER    0.6488   0.6491

 PERFORMANCE PARAMETERS

 Ae/At                      1.0000
 CSTAR, M/SEC               2424.3
 CF                         0.6817
 Ivac, M/SEC                3014.1
 Isp, M/SEC                 1652.7


 MOLE FRACTIONS

 *H              5.4897-3 2.7488-3
 *H2             5.1744-1 5.1928-1
 H2O             4.7540-1 4.7732-1
 *OH             1.6557-3 6.5045-4

  * THERMODYNAMIC PROPERTIES FITTED TO 20000.K

 NOTE. WEIGHT FRACTION OF FUEL IN TOTAL FUELS AND OF OXIDANT IN TOTAL OXIDANTS

 WARNING!!  FREEZING IS NOT ALLOWED AT A SUBSONIC PRESSURE RATIO FOR nfz GREATER
 THAN 1. FROZEN PERFORMANCE CALCULATIONS WERE OMITTED (ROCKET)










              THEORETICAL ROCKET PERFORMANCE ASSUMING EQUILIBRIUM

           COMPOSITION DURING EXPANSION FROM INFINITE AREA COMBUSTOR

 Pin =  2939.2 PSIA
 CASE = _______________

             REACTANT                    WT FRACTION      ENERGY      TEMP
                                          (SEE NOTE)     KJ/KG-MOL      K  
 FUEL        H2(L)                        1.0000000     -9012.000     20.270
 OXIDANT     O2(L)                        1.0000000    -12979.000     90.170

 O/F=    4.00000  %FUEL= 20.000000  R,EQ.RATIO= 1.984171  PHI,EQ.RATIO= 1.984171

                 CHAMBER   THROAT
 Pinf/P            1.0000   1.7762
 P, BAR            202.65   114.09
 T, K             2974.98  2708.50
 RHO, KG/CU M    8.2171 0 5.0939 0
 H, KJ/KG        -1218.59 -2569.68
 U, KJ/KG        -3684.80 -4809.51
 G, KJ/KG        -62427.5 -58295.9
 S, KJ/(KG)(K)    20.5745  20.5745

 M, (1/n)          10.030   10.054
 (dLV/dLP)t      -1.00248 -1.00125
 (dLV/dLT)p        1.0490   1.0269
 Cp, KJ/(KG)(K)    5.4716   5.0592
 GAMMAs            1.1965   1.2064
 SON VEL,M/SEC     1717.8   1643.8
 MACH NUMBER        0.000    1.000

 TRANSPORT PROPERTIES (GASES ONLY)
   CONDUCTIVITY IN UNITS OF MILLIWATTS/(CM)(K)

 VISC,MILLIPOISE  0.87416  0.81629

  WITH EQUILIBRIUM REACTIONS

 Cp, KJ/(KG)(K)    5.4716   5.0592
 CONDUCTIVITY      8.5039   7.0214
 PRANDTL NUMBER    0.5625   0.5882

  WITH FROZEN REACTIONS

 Cp, KJ/(KG)(K)    4.6602   4.5777
 CONDUCTIVITY      6.2243   5.7033
 PRANDTL NUMBER    0.6545   0.6552

 PERFORMANCE PARAMETERS

 Ae/At                      1.0000
 CSTAR, M/SEC               2420.1
 CF                         0.6792
 Ivac, M/SEC                3006.4
 Isp, M/SEC                 1643.8


 MOLE FRACTIONS

 *H              7.2066-3 3.8646-3
 *H2             4.9130-1 4.9341-1
 H2O             4.9888-1 5.0161-1
 *O              2.1373-5 5.0300-6
 *OH             2.5836-3 1.1084-3

  * THERMODYNAMIC PROPERTIES FITTED TO 20000.K

 NOTE. WEIGHT FRACTION OF FUEL IN TOTAL FUELS AND OF OXIDANT IN TOTAL OXIDANTS

 WARNING!!  FREEZING IS NOT ALLOWED AT A SUBSONIC PRESSURE RATIO FOR nfz GREATER
 THAN 1. FROZEN PERFORMANCE CALCULATIONS WERE OMITTED (ROCKET)










              THEORETICAL ROCKET PERFORMANCE ASSUMING EQUILIBRIUM

           COMPOSITION DURING EXPANSION FROM INFINITE AREA COMBUSTOR

 Pin =  2939.2 PSIA
 CASE = _______________

             REACTANT                    WT FRACTION      ENERGY      TEMP
                                          (SEE NOTE)     KJ/KG-MOL      K  
 FUEL        H2(L)                        1.0000000     -9012.000     20.270
 OXIDANT     O2(L)                        1.0000000    -12979.000     90.170

 O/F=    4.20000  %FUEL= 19.230769  R,EQ.RATIO= 1.889686  PHI,EQ.RATIO= 1.889686

                 CHAMBER   THROAT
 Pinf/P            1.0000   1.7717
 P, BAR            202.65   114.38
 T, K             3061.82  2798.32
 RHO, KG/CU M    8.2898 0 5.1354 0
 H, KJ/KG        -1187.32 -2522.76
 U, KJ/KG        -3631.89 -4750.15
 G, KJ/KG        -62853.9 -58882.3
 S, KJ/(KG)(K)    20.1405  20.1405

 M, (1/n)          10.414   10.446
 (dLV/dLP)t      -1.00331 -1.00177
 (dLV/dLT)p        1.0640   1.0370
 Cp, KJ/(KG)(K)    5.5525   5.1009
 GAMMAs            1.1898   1.1991
 SON VEL,M/SEC     1705.4   1634.3
 MACH NUMBER        0.000    1.000

 TRANSPORT PROPERTIES (GASES ONLY)
   CONDUCTIVITY IN UNITS OF MILLIWATTS/(CM)(K)

 VISC,MILLIPOISE  0.90161  0.84428

  WITH EQUILIBRIUM REACTIONS

 Cp, KJ/(KG)(K)    5.5525   5.1009
 CONDUCTIVITY      9.0292   7.4343
 PRANDTL NUMBER    0.5544   0.5793

  WITH FROZEN REACTIONS

 Cp, KJ/(KG)(K)    4.5519   4.4767
 CONDUCTIVITY      6.2157   5.7147
 PRANDTL NUMBER    0.6603   0.6614

 PERFORMANCE PARAMETERS

 Ae/At                      1.0000
 CSTAR, M/SEC               2414.6
 CF                         0.6768
 Ivac, M/SEC                2997.2
 Isp, M/SEC                 1634.3


 MOLE FRACTIONS

 *H              9.1266-3 5.2084-3
 *H2             4.6517-1 4.6747-1
 H2O             5.2179-1 5.2551-1
 *O              4.2303-5 1.1449-5
 *OH             3.8529-3 1.7908-3
 *O2             1.8693-5 5.1586-6

  * THERMODYNAMIC PROPERTIES FITTED TO 20000.K

 NOTE. WEIGHT FRACTION OF FUEL IN TOTAL FUELS AND OF OXIDANT IN TOTAL OXIDANTS

 WARNING!!  FREEZING IS NOT ALLOWED AT A SUBSONIC PRESSURE RATIO FOR nfz GREATER
 THAN 1. FROZEN PERFORMANCE CALCULATIONS WERE OMITTED (ROCKET)










              THEORETICAL ROCKET PERFORMANCE ASSUMING EQUILIBRIUM

           COMPOSITION DURING EXPANSION FROM INFINITE AREA COMBUSTOR

 Pin =  2939.2 PSIA
 CASE = _______________

             REACTANT                    WT FRACTION      ENERGY      TEMP
                                          (SEE NOTE)     KJ/KG-MOL      K  
 FUEL        H2(L)                        1.0000000     -9012.000     20.270
 OXIDANT     O2(L)                        1.0000000    -12979.000     90.170

 O/F=    4.40000  %FUEL= 18.518519  R,EQ.RATIO= 1.803792  PHI,EQ.RATIO= 1.803792

                 CHAMBER   THROAT
 Pinf/P            1.0000   1.7673
 P, BAR            202.65   114.67
 T, K             3142.98  2883.31
 RHO, KG/CU M    8.3701 0 5.1818 0
 H, KJ/KG        -1158.37 -2477.26
 U, KJ/KG        -3579.49 -4690.15
 G, KJ/KG        -63177.7 -59372.7
 S, KJ/(KG)(K)    19.7327  19.7327

 M, (1/n)          10.793   10.834
 (dLV/dLP)t      -1.00430 -1.00242
 (dLV/dLT)p        1.0817   1.0496
 Cp, KJ/(KG)(K)    5.6591   5.1700
 GAMMAs            1.1834   1.1921
 SON VEL,M/SEC     1692.7   1624.2
 MACH NUMBER        0.000    1.000

 TRANSPORT PROPERTIES (GASES ONLY)
   CONDUCTIVITY IN UNITS OF MILLIWATTS/(CM)(K)

 VISC,MILLIPOISE  0.92755  0.87094

  WITH EQUILIBRIUM REACTIONS

 Cp, KJ/(KG)(K)    5.6591   5.1700
 CONDUCTIVITY      9.5813   7.8893
 PRANDTL NUMBER    0.5478   0.5707

  WITH FROZEN REACTIONS

 Cp, KJ/(KG)(K)    4.4495   4.3809
 CONDUCTIVITY      6.1956   5.7149
 PRANDTL NUMBER    0.6661   0.6676

 PERFORMANCE PARAMETERS

 Ae/At                      1.0000
 CSTAR, M/SEC               2407.9
 CF                         0.6745
 Ivac, M/SEC                2986.6
 Isp, M/SEC                 1624.1


 MOLE FRACTIONS

 *H              1.1198-2 6.7609-3
 *H2             4.3915-1 4.4152-1
 H2O             5.4401-1 5.4892-1
 *O              7.8273-5 2.4054-5
 *OH             5.5229-3 2.7612-3
 *O2             3.8011-5 1.1916-5

  * THERMODYNAMIC PROPERTIES FITTED TO 20000.K

 NOTE. WEIGHT FRACTION OF FUEL IN TOTAL FUELS AND OF OXIDANT IN TOTAL OXIDANTS

 WARNING!!  FREEZING IS NOT ALLOWED AT A SUBSONIC PRESSURE RATIO FOR nfz GREATER
 THAN 1. FROZEN PERFORMANCE CALCULATIONS WERE OMITTED (ROCKET)










              THEORETICAL ROCKET PERFORMANCE ASSUMING EQUILIBRIUM

           COMPOSITION DURING EXPANSION FROM INFINITE AREA COMBUSTOR

 Pin =  2939.2 PSIA
 CASE = _______________

             REACTANT                    WT FRACTION      ENERGY      TEMP
                                          (SEE NOTE)     KJ/KG-MOL      K  
 FUEL        H2(L)                        1.0000000     -9012.000     20.270
 OXIDANT     O2(L)                        1.0000000    -12979.000     90.170

 O/F=    4.60000  %FUEL= 17.857143  R,EQ.RATIO= 1.725366  PHI,EQ.RATIO= 1.725366

                 CHAMBER   THROAT
 Pinf/P            1.0000   1.7631
 P, BAR            202.65   114.94
 T, K             3218.53  2963.36
 RHO, KG/CU M    8.4572 0 5.2327 0
 H, KJ/KG        -1131.48 -2433.24
 U, KJ/KG        -3527.66 -4629.78
 G, KJ/KG        -63405.7 -59770.3
 S, KJ/(KG)(K)    19.3487  19.3487

 M, (1/n)          11.168   11.217
 (dLV/dLP)t      -1.00546 -1.00322
 (dLV/dLT)p        1.1021   1.0647
 Cp, KJ/(KG)(K)    5.7904   5.2664
 GAMMAs            1.1775   1.1853
 SON VEL,M/SEC     1679.7   1613.6
 MACH NUMBER        0.000    1.000

 TRANSPORT PROPERTIES (GASES ONLY)
   CONDUCTIVITY IN UNITS OF MILLIWATTS/(CM)(K)

 VISC,MILLIPOISE  0.95199  0.89623

  WITH EQUILIBRIUM REACTIONS

 Cp, KJ/(KG)(K)    5.7904   5.2664
 CONDUCTIVITY     10.1526   8.3811
 PRANDTL NUMBER    0.5430   0.5632

  WITH FROZEN REACTIONS

 Cp, KJ/(KG)(K)    4.3526   4.2900
 CONDUCTIVITY      6.1655   5.7050
 PRANDTL NUMBER    0.6721   0.6739

 PERFORMANCE PARAMETERS

 Ae/At                      1.0000
 CSTAR, M/SEC               2400.2
 CF                         0.6723
 Ivac, M/SEC                2974.9
 Isp, M/SEC                 1613.5


 MOLE FRACTIONS

 *H              1.3359-2 8.4867-3
 *H2             4.1334-1 4.1564-1
 H2O             5.6544-1 5.7172-1
 *O              1.3652-4 4.7091-5
 *OH             7.6459-3 4.0850-3
 *O2             7.2897-5 2.5675-5

  * THERMODYNAMIC PROPERTIES FITTED TO 20000.K

 NOTE. WEIGHT FRACTION OF FUEL IN TOTAL FUELS AND OF OXIDANT IN TOTAL OXIDANTS

 WARNING!!  FREEZING IS NOT ALLOWED AT A SUBSONIC PRESSURE RATIO FOR nfz GREATER
 THAN 1. FROZEN PERFORMANCE CALCULATIONS WERE OMITTED (ROCKET)










              THEORETICAL ROCKET PERFORMANCE ASSUMING EQUILIBRIUM

           COMPOSITION DURING EXPANSION FROM INFINITE AREA COMBUSTOR

 Pin =  2939.2 PSIA
 CASE = _______________

             REACTANT                    WT FRACTION      ENERGY      TEMP
                                          (SEE NOTE)     KJ/KG-MOL      K  
 FUEL        H2(L)                        1.0000000     -9012.000     20.270
 OXIDANT     O2(L)                        1.0000000    -12979.000     90.170

 O/F=    4.80000  %FUEL= 17.241379  R,EQ.RATIO= 1.653476  PHI,EQ.RATIO= 1.653476

                 CHAMBER   THROAT
 Pinf/P            1.0000   1.7592
 P, BAR            202.65   115.20
 T, K             3288.54  3038.38
 RHO, KG/CU M    8.5507 0 5.2878 0
 H, KJ/KG        -1106.45 -2390.59
 U, KJ/KG        -3476.44 -4569.16
 G, KJ/KG        -63544.2 -60078.8
 S, KJ/(KG)(K)    18.9865  18.9865

 M, (1/n)          11.537   11.596
 (dLV/dLP)t      -1.00680 -1.00418
 (dLV/dLT)p        1.1254   1.0827
 Cp, KJ/(KG)(K)    5.9459   5.3901
 GAMMAs            1.1719   1.1789
 SON VEL,M/SEC     1666.6   1602.6
 MACH NUMBER        0.000    1.000

 TRANSPORT PROPERTIES (GASES ONLY)
   CONDUCTIVITY IN UNITS OF MILLIWATTS/(CM)(K)

 VISC,MILLIPOISE  0.97497  0.92015

  WITH EQUILIBRIUM REACTIONS

 Cp, KJ/(KG)(K)    5.9459   5.3901
 CONDUCTIVITY     10.7363   8.9038
 PRANDTL NUMBER    0.5400   0.5570

  WITH FROZEN REACTIONS

 Cp, KJ/(KG)(K)    4.2607   4.2034
 CONDUCTIVITY      6.1268   5.6859
 PRANDTL NUMBER    0.6780   0.6802

 PERFORMANCE PARAMETERS

 Ae/At                      1.0000
 CSTAR, M/SEC               2391.4
 CF                         0.6701
 Ivac, M/SEC                2962.0
 Isp, M/SEC                 1602.6


 MOLE FRACTIONS

 *H              1.5543-2 1.0337-2
 *H2             3.8783-1 3.8990-1
 H2O             5.8600-1 5.9380-1
 *O              2.2606-4 8.6607-5
 *OH             1.0264-2 5.8257-3
 *O2             1.3280-4 5.2033-5

  * THERMODYNAMIC PROPERTIES FITTED TO 20000.K

 NOTE. WEIGHT FRACTION OF FUEL IN TOTAL FUELS AND OF OXIDANT IN TOTAL OXIDANTS

 WARNING!!  FREEZING IS NOT ALLOWED AT A SUBSONIC PRESSURE RATIO FOR nfz GREATER
 THAN 1. FROZEN PERFORMANCE CALCULATIONS WERE OMITTED (ROCKET)










              THEORETICAL ROCKET PERFORMANCE ASSUMING EQUILIBRIUM

           COMPOSITION DURING EXPANSION FROM INFINITE AREA COMBUSTOR

 Pin =  2939.2 PSIA
 CASE = _______________

             REACTANT                    WT FRACTION      ENERGY      TEMP
                                          (SEE NOTE)     KJ/KG-MOL      K  
 FUEL        H2(L)                        1.0000000     -9012.000     20.270
 OXIDANT     O2(L)                        1.0000000    -12979.000     90.170

 O/F=    5.00000  %FUEL= 16.666667  R,EQ.RATIO= 1.587337  PHI,EQ.RATIO= 1.587337

                 CHAMBER   THROAT
 Pinf/P            1.0000   1.7554
 P, BAR            202.65   115.44
 T, K             3353.09  3108.32
 RHO, KG/CU M    8.6500 0 5.3467 0
 H, KJ/KG        -1083.09 -2349.27
 U, KJ/KG        -3425.87 -4508.43
 G, KJ/KG        -63599.0 -60301.5
 S, KJ/(KG)(K)    18.6442  18.6442

 M, (1/n)          11.900   11.970
 (dLV/dLP)t      -1.00834 -1.00532
 (dLV/dLT)p        1.1518   1.1037
 Cp, KJ/(KG)(K)    6.1252   5.5413
 GAMMAs            1.1669   1.1729
 SON VEL,M/SEC     1653.4   1591.4
 MACH NUMBER        0.000    1.000

 TRANSPORT PROPERTIES (GASES ONLY)
   CONDUCTIVITY IN UNITS OF MILLIWATTS/(CM)(K)

 VISC,MILLIPOISE  0.99649  0.94269

  WITH EQUILIBRIUM REACTIONS

 Cp, KJ/(KG)(K)    6.1252   5.5413
 CONDUCTIVITY     11.3266   9.4511
 PRANDTL NUMBER    0.5389   0.5527

  WITH FROZEN REACTIONS

 Cp, KJ/(KG)(K)    4.1735   4.1210
 CONDUCTIVITY      6.0808   5.6589
 PRANDTL NUMBER    0.6839   0.6865

 PERFORMANCE PARAMETERS

 Ae/At                      1.0000
 CSTAR, M/SEC               2381.8
 CF                         0.6681
 Ivac, M/SEC                2948.2
 Isp, M/SEC                 1591.3


 MOLE FRACTIONS

 *H              1.7680-2 1.2251-2
 *H2             3.6274-1 3.6442-1
 H2O             6.0558-1 6.1504-1
 *O              3.5743-4 1.5067-4
 *OH             1.3407-2 8.0401-3
 *O2             2.3120-4 9.9891-5

  * THERMODYNAMIC PROPERTIES FITTED TO 20000.K

 NOTE. WEIGHT FRACTION OF FUEL IN TOTAL FUELS AND OF OXIDANT IN TOTAL OXIDANTS

 WARNING!!  FREEZING IS NOT ALLOWED AT A SUBSONIC PRESSURE RATIO FOR nfz GREATER
 THAN 1. FROZEN PERFORMANCE CALCULATIONS WERE OMITTED (ROCKET)










              THEORETICAL ROCKET PERFORMANCE ASSUMING EQUILIBRIUM

           COMPOSITION DURING EXPANSION FROM INFINITE AREA COMBUSTOR

 Pin =  2939.2 PSIA
 CASE = _______________

             REACTANT                    WT FRACTION      ENERGY      TEMP
                                          (SEE NOTE)     KJ/KG-MOL      K  
 FUEL        H2(L)                        1.0000000     -9012.000     20.270
 OXIDANT     O2(L)                        1.0000000    -12979.000     90.170

 O/F=    5.20000  %FUEL= 16.129032  R,EQ.RATIO= 1.526285  PHI,EQ.RATIO= 1.526285

                 CHAMBER   THROAT
 Pinf/P            1.0000   1.7519
 P, BAR            202.65   115.68
 T, K             3412.28  3173.11
 RHO, KG/CU M    8.7548 0 5.4092 0
 H, KJ/KG        -1061.24 -2309.25
 U, KJ/KG        -3375.97 -4447.73
 G, KJ/KG        -63575.1 -60441.6
 S, KJ/(KG)(K)    18.3203  18.3203

 M, (1/n)          12.257   12.337
 (dLV/dLP)t      -1.01008 -1.00666
 (dLV/dLT)p        1.1814   1.1280
 Cp, KJ/(KG)(K)    6.3278   5.7205
 GAMMAs            1.1622   1.1672
 SON VEL,M/SEC     1640.2   1579.9
 MACH NUMBER        0.000    1.000

 TRANSPORT PROPERTIES (GASES ONLY)
   CONDUCTIVITY IN UNITS OF MILLIWATTS/(CM)(K)

 VISC,MILLIPOISE   1.0166  0.96386

  WITH EQUILIBRIUM REACTIONS

 Cp, KJ/(KG)(K)    6.3278   5.7205
 CONDUCTIVITY     11.9190  10.0173
 PRANDTL NUMBER    0.5397   0.5504

  WITH FROZEN REACTIONS

 Cp, KJ/(KG)(K)    4.0905   4.0423
 CONDUCTIVITY      6.0285   5.6247
 PRANDTL NUMBER    0.6898   0.6927

 PERFORMANCE PARAMETERS

 Ae/At                      1.0000
 CSTAR, M/SEC               2371.3
 CF                         0.6662
 Ivac, M/SEC                2933.5
 Isp, M/SEC                 1579.9


 MOLE FRACTIONS

 *H              1.9704-2 1.4164-2
 *H2             3.3817-1 3.3929-1
 H2O             6.2409-1 6.3533-1
 *O              5.4232-4 2.4939-4
 *OH             1.7088-2 1.0774-2
 *O2             3.8659-4 1.8274-4

  * THERMODYNAMIC PROPERTIES FITTED TO 20000.K

 NOTE. WEIGHT FRACTION OF FUEL IN TOTAL FUELS AND OF OXIDANT IN TOTAL OXIDANTS

 WARNING!!  FREEZING IS NOT ALLOWED AT A SUBSONIC PRESSURE RATIO FOR nfz GREATER
 THAN 1. FROZEN PERFORMANCE CALCULATIONS WERE OMITTED (ROCKET)










              THEORETICAL ROCKET PERFORMANCE ASSUMING EQUILIBRIUM

           COMPOSITION DURING EXPANSION FROM INFINITE AREA COMBUSTOR

 Pin =  2939.2 PSIA
 CASE = _______________

             REACTANT                    WT FRACTION      ENERGY      TEMP
                                          (SEE NOTE)     KJ/KG-MOL      K  
 FUEL        H2(L)                        1.0000000     -9012.000     20.270
 OXIDANT     O2(L)                        1.0000000    -12979.000     90.170

 O/F=    5.40000  %FUEL= 15.625000  R,EQ.RATIO= 1.469756  PHI,EQ.RATIO= 1.469756

                 CHAMBER   THROAT
 Pinf/P            1.0000   1.7486
 P, BAR            202.65   115.89
 T, K             3466.16  3232.73
 RHO, KG/CU M    8.8648 0 5.4752 0
 H, KJ/KG        -1040.75 -2270.47
 U, KJ/KG        -3326.76 -4387.16
 G, KJ/KG        -63477.2 -60502.2
 S, KJ/(KG)(K)    18.0132  18.0132

 M, (1/n)          12.607   12.698
 (dLV/dLP)t      -1.01202 -1.00820
 (dLV/dLT)p        1.2142   1.1559
 Cp, KJ/(KG)(K)    6.5529   5.9281
 GAMMAs            1.1579   1.1619
 SON VEL,M/SEC     1626.9   1568.3
 MACH NUMBER        0.000    1.000

 TRANSPORT PROPERTIES (GASES ONLY)
   CONDUCTIVITY IN UNITS OF MILLIWATTS/(CM)(K)

 VISC,MILLIPOISE   1.0353  0.98365

  WITH EQUILIBRIUM REACTIONS

 Cp, KJ/(KG)(K)    6.5529   5.9281
 CONDUCTIVITY     12.5105  10.5977
 PRANDTL NUMBER    0.5423   0.5502

  WITH FROZEN REACTIONS

 Cp, KJ/(KG)(K)    4.0115   3.9671
 CONDUCTIVITY      5.9709   5.5844
 PRANDTL NUMBER    0.6955   0.6988

 PERFORMANCE PARAMETERS

 Ae/At                      1.0000
 CSTAR, M/SEC               2360.1
 CF                         0.6645
 Ivac, M/SEC                2918.0
 Isp, M/SEC                 1568.3


 MOLE FRACTIONS

 *H              2.1553-2 1.6007-2
 HO2             1.0979-5 4.1622-6
 *H2             3.1425-1 3.1465-1
 H2O             6.4146-1 6.5456-1
 *O              7.9286-4 3.9467-4
 *OH             2.1299-2 1.4058-2
 *O2             6.2344-4 3.2020-4

  * THERMODYNAMIC PROPERTIES FITTED TO 20000.K

 NOTE. WEIGHT FRACTION OF FUEL IN TOTAL FUELS AND OF OXIDANT IN TOTAL OXIDANTS

 WARNING!!  FREEZING IS NOT ALLOWED AT A SUBSONIC PRESSURE RATIO FOR nfz GREATER
 THAN 1. FROZEN PERFORMANCE CALCULATIONS WERE OMITTED (ROCKET)










              THEORETICAL ROCKET PERFORMANCE ASSUMING EQUILIBRIUM

           COMPOSITION DURING EXPANSION FROM INFINITE AREA COMBUSTOR

 Pin =  2939.2 PSIA
 CASE = _______________

             REACTANT                    WT FRACTION      ENERGY      TEMP
                                          (SEE NOTE)     KJ/KG-MOL      K  
 FUEL        H2(L)                        1.0000000     -9012.000     20.270
 OXIDANT     O2(L)                        1.0000000    -12979.000     90.170

 O/F=    5.60000  %FUEL= 15.151515  R,EQ.RATIO= 1.417265  PHI,EQ.RATIO= 1.417265

                 CHAMBER   THROAT
 Pinf/P            1.0000   1.7456
 P, BAR            202.65   116.09
 T, K             3514.81  3287.13
 RHO, KG/CU M    8.9797 0 5.5444 0
 H, KJ/KG        -1021.50 -2232.89
 U, KJ/KG        -3278.25 -4326.78
 G, KJ/KG        -63309.4 -60485.9
 S, KJ/(KG)(K)    17.7215  17.7215

 M, (1/n)          12.950   13.053
 (dLV/dLP)t      -1.01418 -1.00997
 (dLV/dLT)p        1.2502   1.1875
 Cp, KJ/(KG)(K)    6.7987   6.1642
 GAMMAs            1.1540   1.1571
 SON VEL,M/SEC     1613.8   1556.5
 MACH NUMBER        0.000    1.000

 TRANSPORT PROPERTIES (GASES ONLY)
   CONDUCTIVITY IN UNITS OF MILLIWATTS/(CM)(K)

 VISC,MILLIPOISE   1.0525   1.0020

  WITH EQUILIBRIUM REACTIONS

 Cp, KJ/(KG)(K)    6.7987   6.1642
 CONDUCTIVITY     13.0985  11.1889
 PRANDTL NUMBER    0.5463   0.5520

  WITH FROZEN REACTIONS

 Cp, KJ/(KG)(K)    3.9361   3.8951
 CONDUCTIVITY      5.9091   5.5387
 PRANDTL NUMBER    0.7011   0.7047

 PERFORMANCE PARAMETERS

 Ae/At                      1.0000
 CSTAR, M/SEC               2348.2
 CF                         0.6629
 Ivac, M/SEC                2901.8
 Isp, M/SEC                 1556.5


 MOLE FRACTIONS

 *H              2.3175-2 1.7712-2
 HO2             1.6572-5 6.7877-6
 *H2             2.9108-1 2.9062-1
 H2O             6.5761-1 6.7261-1
 *O              1.1207-3 5.9962-4
 *OH             2.6016-2 1.7901-2
 *O2             9.7296-4 5.3959-4

  * THERMODYNAMIC PROPERTIES FITTED TO 20000.K

 NOTE. WEIGHT FRACTION OF FUEL IN TOTAL FUELS AND OF OXIDANT IN TOTAL OXIDANTS

 WARNING!!  FREEZING IS NOT ALLOWED AT A SUBSONIC PRESSURE RATIO FOR nfz GREATER
 THAN 1. FROZEN PERFORMANCE CALCULATIONS WERE OMITTED (ROCKET)










              THEORETICAL ROCKET PERFORMANCE ASSUMING EQUILIBRIUM

           COMPOSITION DURING EXPANSION FROM INFINITE AREA COMBUSTOR

 Pin =  2939.2 PSIA
 CASE = _______________

             REACTANT                    WT FRACTION      ENERGY      TEMP
                                          (SEE NOTE)     KJ/KG-MOL      K  
 FUEL        H2(L)                        1.0000000     -9012.000     20.270
 OXIDANT     O2(L)                        1.0000000    -12979.000     90.170

 O/F=    5.80000  %FUEL= 14.705882  R,EQ.RATIO= 1.368394  PHI,EQ.RATIO= 1.368394

                 CHAMBER   THROAT
 Pinf/P            1.0000   1.7428
 P, BAR            202.65   116.28
 T, K             3558.31  3336.27
 RHO, KG/CU M    9.0995 0 5.6168 0
 H, KJ/KG        -1003.39 -2196.47
 U, KJ/KG        -3230.44 -4266.68
 G, KJ/KG        -63075.5 -60395.2
 S, KJ/(KG)(K)    17.4442  17.4442

 M, (1/n)          13.285   13.399
 (dLV/dLP)t      -1.01654 -1.01198
 (dLV/dLT)p        1.2894   1.2230
 Cp, KJ/(KG)(K)    7.0622   6.4280
 GAMMAs            1.1505   1.1526
 SON VEL,M/SEC     1600.7   1544.7
 MACH NUMBER        0.000    1.000

 TRANSPORT PROPERTIES (GASES ONLY)
   CONDUCTIVITY IN UNITS OF MILLIWATTS/(CM)(K)

 VISC,MILLIPOISE   1.0684   1.0190

  WITH EQUILIBRIUM REACTIONS

 Cp, KJ/(KG)(K)    7.0622   6.4280
 CONDUCTIVITY     13.6811  11.7880
 PRANDTL NUMBER    0.5515   0.5557

  WITH FROZEN REACTIONS

 Cp, KJ/(KG)(K)    3.8642   3.8262
 CONDUCTIVITY      5.8437   5.4883
 PRANDTL NUMBER    0.7065   0.7104

 PERFORMANCE PARAMETERS

 Ae/At                      1.0000
 CSTAR, M/SEC               2335.6
 CF                         0.6614
 Ivac, M/SEC                2884.9
 Isp, M/SEC                 1544.7


 MOLE FRACTIONS

 *H              2.4526-2 1.9219-2
 HO2             2.4220-5 1.0652-5
 *H2             2.6877-1 2.6734-1
 H2O             6.7247-1 6.8937-1
 H2O2            1.3078-5 6.0717-6
 *O              1.5357-3 8.7752-4
 *OH             3.1190-2 2.2290-2
 *O2             1.4736-3 8.7750-4

  * THERMODYNAMIC PROPERTIES FITTED TO 20000.K

 NOTE. WEIGHT FRACTION OF FUEL IN TOTAL FUELS AND OF OXIDANT IN TOTAL OXIDANTS

 WARNING!!  FREEZING IS NOT ALLOWED AT A SUBSONIC PRESSURE RATIO FOR nfz GREATER
 THAN 1. FROZEN PERFORMANCE CALCULATIONS WERE OMITTED (ROCKET)










              THEORETICAL ROCKET PERFORMANCE ASSUMING EQUILIBRIUM

           COMPOSITION DURING EXPANSION FROM INFINITE AREA COMBUSTOR

 Pin =  2939.2 PSIA
 CASE = _______________

             REACTANT                    WT FRACTION      ENERGY      TEMP
                                          (SEE NOTE)     KJ/KG-MOL      K  
 FUEL        H2(L)                        1.0000000     -9012.000     20.270
 OXIDANT     O2(L)                        1.0000000    -12979.000     90.170

 O/F=    6.00000  %FUEL= 14.285714  R,EQ.RATIO= 1.322780  PHI,EQ.RATIO= 1.322780

                 CHAMBER   THROAT
 Pinf/P            1.0000   1.7402
 P, BAR            202.65   116.45
 T, K             3596.73  3380.12
 RHO, KG/CU M    9.2239 0 5.6923 0
 H, KJ/KG         -986.31 -2161.16
 U, KJ/KG        -3183.33 -4206.90
 G, KJ/KG        -62778.9 -60232.3
 S, KJ/(KG)(K)    17.1802  17.1802

 M, (1/n)          13.612   13.738
 (dLV/dLP)t      -1.01908 -1.01422
 (dLV/dLT)p        1.3311   1.2623
 Cp, KJ/(KG)(K)    7.3380   6.7168
 GAMMAs            1.1473   1.1486
 SON VEL,M/SEC     1587.7   1532.9
 MACH NUMBER        0.000    1.000

 TRANSPORT PROPERTIES (GASES ONLY)
   CONDUCTIVITY IN UNITS OF MILLIWATTS/(CM)(K)

 VISC,MILLIPOISE   1.0828   1.0346

  WITH EQUILIBRIUM REACTIONS

 Cp, KJ/(KG)(K)    7.3380   6.7168
 CONDUCTIVITY     14.2560  12.3927
 PRANDTL NUMBER    0.5574   0.5607

  WITH FROZEN REACTIONS

 Cp, KJ/(KG)(K)    3.7955   3.7601
 CONDUCTIVITY      5.7756   5.4340
 PRANDTL NUMBER    0.7116   0.7159

 PERFORMANCE PARAMETERS

 Ae/At                      1.0000
 CSTAR, M/SEC               2322.5
 CF                         0.6600
 Ivac, M/SEC                2867.5
 Isp, M/SEC                 1532.9


 MOLE FRACTIONS

 *H              2.5578-2 2.0476-2
 HO2             3.4358-5 1.6131-5
 *H2             2.4742-1 2.4495-1
 H2O             6.8598-1 7.0475-1
 H2O2            1.6870-5 8.2161-6
 *O              2.0452-3 1.2405-3
 *OH             3.6752-2 2.7182-2
 *O2             2.1706-3 1.3808-3

  * THERMODYNAMIC PROPERTIES FITTED TO 20000.K

 NOTE. WEIGHT FRACTION OF FUEL IN TOTAL FUELS AND OF OXIDANT IN TOTAL OXIDANTS

 WARNING!!  FREEZING IS NOT ALLOWED AT A SUBSONIC PRESSURE RATIO FOR nfz GREATER
 THAN 1. FROZEN PERFORMANCE CALCULATIONS WERE OMITTED (ROCKET)










              THEORETICAL ROCKET PERFORMANCE ASSUMING EQUILIBRIUM

           COMPOSITION DURING EXPANSION FROM INFINITE AREA COMBUSTOR

 Pin =  2939.2 PSIA
 CASE = _______________

             REACTANT                    WT FRACTION      ENERGY      TEMP
                                          (SEE NOTE)     KJ/KG-MOL      K  
 FUEL        H2(L)                        1.0000000     -9012.000     20.270
 OXIDANT     O2(L)                        1.0000000    -12979.000     90.170

 O/F=    6.20000  %FUEL= 13.888889  R,EQ.RATIO= 1.280110  PHI,EQ.RATIO= 1.280110

                 CHAMBER   THROAT
 Pinf/P            1.0000   1.7380
 P, BAR            202.65   116.60
 T, K             3630.15  3418.64
 RHO, KG/CU M    9.3527 0 5.7707 0
 H, KJ/KG         -970.18 -2126.94
 U, KJ/KG        -3136.93 -4147.52
 G, KJ/KG        -62423.1 -59999.3
 S, KJ/(KG)(K)    16.9285  16.9285

 M, (1/n)          13.930   14.067
 (dLV/dLP)t      -1.02175 -1.01667
 (dLV/dLT)p        1.3748   1.3050
 Cp, KJ/(KG)(K)    7.6183   7.0248
 GAMMAs            1.1446   1.1450
 SON VEL,M/SEC     1574.8   1521.0
 MACH NUMBER        0.000    1.000

 TRANSPORT PROPERTIES (GASES ONLY)
   CONDUCTIVITY IN UNITS OF MILLIWATTS/(CM)(K)

 VISC,MILLIPOISE   1.0959   1.0486

  WITH EQUILIBRIUM REACTIONS

 Cp, KJ/(KG)(K)    7.6183   7.0248
 CONDUCTIVITY     14.8197  12.9999
 PRANDTL NUMBER    0.5633   0.5667

  WITH FROZEN REACTIONS

 Cp, KJ/(KG)(K)    3.7297   3.6966
 CONDUCTIVITY      5.7054   5.3764
 PRANDTL NUMBER    0.7164   0.7210

 PERFORMANCE PARAMETERS

 Ae/At                      1.0000
 CSTAR, M/SEC               2308.8
 CF                         0.6588
 Ivac, M/SEC                2849.5
 Isp, M/SEC                 1521.0


 MOLE FRACTIONS

 *H              2.6313-2 2.1443-2
 HO2             4.7399-5 2.3625-5
 *H2             2.2713-1 2.2357-1
 H2O             6.9810-1 7.1864-1
 H2O2            2.1302-5 1.0838-5
 *O              2.6521-3 1.6975-3
 *OH             4.2614-2 3.2506-2
 *O2             3.1155-3 2.1070-3

  * THERMODYNAMIC PROPERTIES FITTED TO 20000.K

 NOTE. WEIGHT FRACTION OF FUEL IN TOTAL FUELS AND OF OXIDANT IN TOTAL OXIDANTS

 WARNING!!  FREEZING IS NOT ALLOWED AT A SUBSONIC PRESSURE RATIO FOR nfz GREATER
 THAN 1. FROZEN PERFORMANCE CALCULATIONS WERE OMITTED (ROCKET)










              THEORETICAL ROCKET PERFORMANCE ASSUMING EQUILIBRIUM

           COMPOSITION DURING EXPANSION FROM INFINITE AREA COMBUSTOR

 Pin =  2939.2 PSIA
 CASE = _______________

             REACTANT                    WT FRACTION      ENERGY      TEMP
                                          (SEE NOTE)     KJ/KG-MOL      K  
 FUEL        H2(L)                        1.0000000     -9012.000     20.270
 OXIDANT     O2(L)                        1.0000000    -12979.000     90.170

 O/F=    6.40000  %FUEL= 13.513514  R,EQ.RATIO= 1.240107  PHI,EQ.RATIO= 1.240107

                 CHAMBER   THROAT
 Pinf/P            1.0000   1.7360
 P, BAR            202.65   116.73
 T, K             3658.70  3451.86
 RHO, KG/CU M    9.4859 0 5.8519 0
 H, KJ/KG         -954.92 -2093.78
 U, KJ/KG        -3091.24 -4088.58
 G, KJ/KG        -62011.8 -59698.8
 S, KJ/(KG)(K)    16.6881  16.6881

 M, (1/n)          14.240   14.388
 (dLV/dLP)t      -1.02448 -1.01929
 (dLV/dLT)p        1.4191   1.3502
 Cp, KJ/(KG)(K)    7.8920   7.3417
 GAMMAs            1.1422   1.1418
 SON VEL,M/SEC     1562.1   1509.2
 MACH NUMBER        0.000    1.000

 TRANSPORT PROPERTIES (GASES ONLY)
   CONDUCTIVITY IN UNITS OF MILLIWATTS/(CM)(K)

 VISC,MILLIPOISE   1.1075   1.0612

  WITH EQUILIBRIUM REACTIONS

 Cp, KJ/(KG)(K)    7.8920   7.3417
 CONDUCTIVITY     15.3670  13.6051
 PRANDTL NUMBER    0.5688   0.5727

  WITH FROZEN REACTIONS

 Cp, KJ/(KG)(K)    3.6667   3.6356
 CONDUCTIVITY      5.6336   5.3160
 PRANDTL NUMBER    0.7208   0.7258

 PERFORMANCE PARAMETERS

 Ae/At                      1.0000
 CSTAR, M/SEC               2294.6
 CF                         0.6577
 Ivac, M/SEC                2831.0
 Isp, M/SEC                 1509.2


 MOLE FRACTIONS

 *H              2.6729-2 2.2097-2
 HO2             6.3696-5 3.3521-5
 *H2             2.0799-1 2.0333-1
 H2O             7.0880-1 7.3099-1
 H2O2            2.6360-5 1.3953-5
 *O              3.3544-3 2.2530-3
 *OH             4.8668-2 3.8160-2
 *O2             4.3634-3 3.1222-3

  * THERMODYNAMIC PROPERTIES FITTED TO 20000.K

 NOTE. WEIGHT FRACTION OF FUEL IN TOTAL FUELS AND OF OXIDANT IN TOTAL OXIDANTS

 WARNING!!  FREEZING IS NOT ALLOWED AT A SUBSONIC PRESSURE RATIO FOR nfz GREATER
 THAN 1. FROZEN PERFORMANCE CALCULATIONS WERE OMITTED (ROCKET)










              THEORETICAL ROCKET PERFORMANCE ASSUMING EQUILIBRIUM

           COMPOSITION DURING EXPANSION FROM INFINITE AREA COMBUSTOR

 Pin =  2939.2 PSIA
 CASE = _______________

             REACTANT                    WT FRACTION      ENERGY      TEMP
                                          (SEE NOTE)     KJ/KG-MOL      K  
 FUEL        H2(L)                        1.0000000     -9012.000     20.270
 OXIDANT     O2(L)                        1.0000000    -12979.000     90.170

 O/F=    6.60000  %FUEL= 13.157895  R,EQ.RATIO= 1.202528  PHI,EQ.RATIO= 1.202528

                 CHAMBER   THROAT
 Pinf/P            1.0000   1.7343
 P, BAR            202.65   116.85
 T, K             3682.51  3479.81
 RHO, KG/CU M    9.6233 0 5.9359 0
 H, KJ/KG         -940.46 -2061.66
 U, KJ/KG        -3046.30 -4030.17
 G, KJ/KG        -61548.9 -59334.0
 S, KJ/(KG)(K)    16.4585  16.4585

 M, (1/n)          14.540   14.698
 (dLV/dLP)t      -1.02717 -1.02198
 (dLV/dLT)p        1.4625   1.3962
 Cp, KJ/(KG)(K)    8.1457   7.6526
 GAMMAs            1.1402   1.1391
 SON VEL,M/SEC     1549.6   1497.5
 MACH NUMBER        0.000    1.000

 TRANSPORT PROPERTIES (GASES ONLY)
   CONDUCTIVITY IN UNITS OF MILLIWATTS/(CM)(K)

 VISC,MILLIPOISE   1.1177   1.0724

  WITH EQUILIBRIUM REACTIONS

 Cp, KJ/(KG)(K)    8.1457   7.6526
 CONDUCTIVITY     15.8904  14.2005
 PRANDTL NUMBER    0.5730   0.5779

  WITH FROZEN REACTIONS

 Cp, KJ/(KG)(K)    3.6063   3.5769
 CONDUCTIVITY      5.5608   5.2534
 PRANDTL NUMBER    0.7249   0.7301

 PERFORMANCE PARAMETERS

 Ae/At                      1.0000
 CSTAR, M/SEC               2279.8
 CF                         0.6568
 Ivac, M/SEC                2812.0
 Isp, M/SEC                 1497.5


 MOLE FRACTIONS

 *H              2.6837-2 2.2433-2
 HO2             8.3496-5 4.6144-5
 *H2             1.9006-1 1.8435-1
 H2O             7.1808-1 7.4173-1
 H2O2            3.2002-5 1.7552-5
 *O              4.1443-3 2.9047-3
 *OH             5.4797-2 4.4020-2
 *O2             5.9704-3 4.4988-3

  * THERMODYNAMIC PROPERTIES FITTED TO 20000.K

 NOTE. WEIGHT FRACTION OF FUEL IN TOTAL FUELS AND OF OXIDANT IN TOTAL OXIDANTS

 WARNING!!  FREEZING IS NOT ALLOWED AT A SUBSONIC PRESSURE RATIO FOR nfz GREATER
 THAN 1. FROZEN PERFORMANCE CALCULATIONS WERE OMITTED (ROCKET)










              THEORETICAL ROCKET PERFORMANCE ASSUMING EQUILIBRIUM

           COMPOSITION DURING EXPANSION FROM INFINITE AREA COMBUSTOR

 Pin =  2939.2 PSIA
 CASE = _______________

             REACTANT                    WT FRACTION      ENERGY      TEMP
                                          (SEE NOTE)     KJ/KG-MOL      K  
 FUEL        H2(L)                        1.0000000     -9012.000     20.270
 OXIDANT     O2(L)                        1.0000000    -12979.000     90.170

 O/F=    6.80000  %FUEL= 12.820513  R,EQ.RATIO= 1.167159  PHI,EQ.RATIO= 1.167159

                 CHAMBER   THROAT
 Pinf/P            1.0000   1.7329
 P, BAR            202.65   116.94
 T, K             3701.79  3502.62
 RHO, KG/CU M    9.7645 0 6.0224 0
 H, KJ/KG         -926.75 -2030.56
 U, KJ/KG        -3002.12 -3972.37
 G, KJ/KG        -61039.1 -58908.7
 S, KJ/(KG)(K)    16.2387  16.2387

 M, (1/n)          14.830   14.998
 (dLV/dLP)t      -1.02971 -1.02461
 (dLV/dLT)p        1.5030   1.4410
 Cp, KJ/(KG)(K)    8.3645   7.9382
 GAMMAs            1.1386   1.1369
 SON VEL,M/SEC     1537.2   1485.8
 MACH NUMBER        0.000    1.000

 TRANSPORT PROPERTIES (GASES ONLY)
   CONDUCTIVITY IN UNITS OF MILLIWATTS/(CM)(K)

 VISC,MILLIPOISE   1.1266   1.0820

  WITH EQUILIBRIUM REACTIONS

 Cp, KJ/(KG)(K)    8.3645   7.9382
 CONDUCTIVITY     16.3797  14.7744
 PRANDTL NUMBER    0.5753   0.5813

  WITH FROZEN REACTIONS

 Cp, KJ/(KG)(K)    3.5485   3.5205
 CONDUCTIVITY      5.4875   5.1891
 PRANDTL NUMBER    0.7285   0.7340

 PERFORMANCE PARAMETERS

 Ae/At                      1.0000
 CSTAR, M/SEC               2264.7
 CF                         0.6561
 Ivac, M/SEC                2792.7
 Isp, M/SEC                 1485.8


 MOLE FRACTIONS

 *H              2.6660-2 2.2462-2
 HO2             1.0690-4 6.1705-5
 *H2             1.7338-1 1.6672-1
 H2O             7.2594-1 7.5084-1
 H2O2            3.8156-5 2.1594-5
 *O              5.0084-3 3.6433-3
 *OH             6.0878-2 4.9942-2
 *O2             7.9892-3 6.3091-3

  * THERMODYNAMIC PROPERTIES FITTED TO 20000.K

 NOTE. WEIGHT FRACTION OF FUEL IN TOTAL FUELS AND OF OXIDANT IN TOTAL OXIDANTS

 WARNING!!  FREEZING IS NOT ALLOWED AT A SUBSONIC PRESSURE RATIO FOR nfz GREATER
 THAN 1. FROZEN PERFORMANCE CALCULATIONS WERE OMITTED (ROCKET)










              THEORETICAL ROCKET PERFORMANCE ASSUMING EQUILIBRIUM

           COMPOSITION DURING EXPANSION FROM INFINITE AREA COMBUSTOR

 Pin =  2939.2 PSIA
 CASE = _______________

             REACTANT                    WT FRACTION      ENERGY      TEMP
                                          (SEE NOTE)     KJ/KG-MOL      K  
 FUEL        H2(L)                        1.0000000     -9012.000     20.270
 OXIDANT     O2(L)                        1.0000000    -12979.000     90.170

 O/F=    7.00000  %FUEL= 12.500000  R,EQ.RATIO= 1.133812  PHI,EQ.RATIO= 1.133812

                 CHAMBER   THROAT
 Pinf/P            1.0000   1.7317
 P, BAR            202.65   117.02
 T, K             3716.78  3520.49
 RHO, KG/CU M    9.9095 0 6.1113 0
 H, KJ/KG         -913.72 -2000.48
 U, KJ/KG        -2958.74 -3915.29
 G, KJ/KG        -60487.4 -58428.0
 S, KJ/(KG)(K)    16.0283  16.0283

 M, (1/n)          15.111   15.287
 (dLV/dLP)t      -1.03195 -1.02703
 (dLV/dLT)p        1.5388   1.4819
 Cp, KJ/(KG)(K)    8.5347   8.1775
 GAMMAs            1.1373   1.1351
 SON VEL,M/SEC     1525.0   1474.3
 MACH NUMBER        0.000    1.000

 TRANSPORT PROPERTIES (GASES ONLY)
   CONDUCTIVITY IN UNITS OF MILLIWATTS/(CM)(K)

 VISC,MILLIPOISE   1.1341   1.0901

  WITH EQUILIBRIUM REACTIONS

 Cp, KJ/(KG)(K)    8.5347   8.1775
 CONDUCTIVITY     16.8228  15.3112
 PRANDTL NUMBER    0.5754   0.5822

  WITH FROZEN REACTIONS

 Cp, KJ/(KG)(K)    3.4929   3.4661
 CONDUCTIVITY      5.4140   5.1236
 PRANDTL NUMBER    0.7317   0.7374

 PERFORMANCE PARAMETERS

 Ae/At                      1.0000
 CSTAR, M/SEC               2249.2
 CF                         0.6555
 Ivac, M/SEC                2773.1
 Isp, M/SEC                 1474.3


 MOLE FRACTIONS

 *H              2.6231-2 2.2209-2
 HO2             1.3385-4 8.0256-5
 *H2             1.5797-1 1.5049-1
 H2O             7.3243-1 7.5835-1
 H2O2            4.4723-5 2.6010-5
 *O              5.9287-3 4.4520-3
 *OH             6.6793-2 5.5777-2
 *O2             1.0465-2 8.6190-3

  * THERMODYNAMIC PROPERTIES FITTED TO 20000.K

 NOTE. WEIGHT FRACTION OF FUEL IN TOTAL FUELS AND OF OXIDANT IN TOTAL OXIDANTS

 WARNING!!  FREEZING IS NOT ALLOWED AT A SUBSONIC PRESSURE RATIO FOR nfz GREATER
 THAN 1. FROZEN PERFORMANCE CALCULATIONS WERE OMITTED (ROCKET)










              THEORETICAL ROCKET PERFORMANCE ASSUMING EQUILIBRIUM

           COMPOSITION DURING EXPANSION FROM INFINITE AREA COMBUSTOR

 Pin =  2939.2 PSIA
 CASE = _______________

             REACTANT                    WT FRACTION      ENERGY      TEMP
                                          (SEE NOTE)     KJ/KG-MOL      K  
 FUEL        H2(L)                        1.0000000     -9012.000     20.270
 OXIDANT     O2(L)                        1.0000000    -12979.000     90.170

 O/F=    7.20000  %FUEL= 12.195122  R,EQ.RATIO= 1.102317  PHI,EQ.RATIO= 1.102317

                 CHAMBER   THROAT
 Pinf/P            1.0000   1.7309
 P, BAR            202.65   117.08
 T, K             3727.78  3533.72
 RHO, KG/CU M    1.0058 1 6.2024 0
 H, KJ/KG         -901.33 -1971.39
 U, KJ/KG        -2916.21 -3859.03
 G, KJ/KG        -59899.4 -57898.1
 S, KJ/(KG)(K)    15.8266  15.8266

 M, (1/n)          15.383   15.565
 (dLV/dLP)t      -1.03380 -1.02909
 (dLV/dLT)p        1.5681   1.5164
 Cp, KJ/(KG)(K)    8.6459   8.3519
 GAMMAs            1.1363   1.1338
 SON VEL,M/SEC     1513.1   1462.9
 MACH NUMBER        0.000    1.000

 TRANSPORT PROPERTIES (GASES ONLY)
   CONDUCTIVITY IN UNITS OF MILLIWATTS/(CM)(K)

 VISC,MILLIPOISE   1.1404   1.0967

  WITH EQUILIBRIUM REACTIONS

 Cp, KJ/(KG)(K)    8.6459   8.3519
 CONDUCTIVITY     17.2068  15.7922
 PRANDTL NUMBER    0.5730   0.5800

  WITH FROZEN REACTIONS

 Cp, KJ/(KG)(K)    3.4396   3.4138
 CONDUCTIVITY      5.3408   5.0573
 PRANDTL NUMBER    0.7344   0.7403

 PERFORMANCE PARAMETERS

 Ae/At                      1.0000
 CSTAR, M/SEC               2233.4
 CF                         0.6550
 Ivac, M/SEC                2753.2
 Isp, M/SEC                 1462.9


 MOLE FRACTIONS

 *H              2.5589-2 2.1715-2
 HO2             1.6410-4 1.0167-4
 *H2             1.4384-1 1.3569-1
 H2O             7.3760-1 7.6429-1
 H2O2            5.1583-5 3.0704-5
 *O              6.8837-3 5.3087-3
 *OH             7.2432-2 6.1383-2
 *O2             1.3432-2 1.1481-2

  * THERMODYNAMIC PROPERTIES FITTED TO 20000.K

 NOTE. WEIGHT FRACTION OF FUEL IN TOTAL FUELS AND OF OXIDANT IN TOTAL OXIDANTS

 WARNING!!  FREEZING IS NOT ALLOWED AT A SUBSONIC PRESSURE RATIO FOR nfz GREATER
 THAN 1. FROZEN PERFORMANCE CALCULATIONS WERE OMITTED (ROCKET)










              THEORETICAL ROCKET PERFORMANCE ASSUMING EQUILIBRIUM

           COMPOSITION DURING EXPANSION FROM INFINITE AREA COMBUSTOR

 Pin =  2939.2 PSIA
 CASE = _______________

             REACTANT                    WT FRACTION      ENERGY      TEMP
                                          (SEE NOTE)     KJ/KG-MOL      K  
 FUEL        H2(L)                        1.0000000     -9012.000     20.270
 OXIDANT     O2(L)                        1.0000000    -12979.000     90.170

 O/F=    7.40000  %FUEL= 11.904762  R,EQ.RATIO= 1.072525  PHI,EQ.RATIO= 1.072525

                 CHAMBER   THROAT
 Pinf/P            1.0000   1.7303
 P, BAR            202.65   117.12
 T, K             3735.11  3542.67
 RHO, KG/CU M    1.0209 1 6.2953 0
 H, KJ/KG         -889.53 -1943.26
 U, KJ/KG        -2874.57 -3803.70
 G, KJ/KG        -59280.8 -57326.1
 S, KJ/(KG)(K)    15.6331  15.6331

 M, (1/n)          15.645   15.833
 (dLV/dLP)t      -1.03519 -1.03065
 (dLV/dLT)p        1.5899   1.5425
 Cp, KJ/(KG)(K)    8.6930   8.4495
 GAMMAs            1.1355   1.1328
 SON VEL,M/SEC     1501.4   1451.7
 MACH NUMBER        0.000    1.000

 TRANSPORT PROPERTIES (GASES ONLY)
   CONDUCTIVITY IN UNITS OF MILLIWATTS/(CM)(K)

 VISC,MILLIPOISE   1.1454   1.1021

  WITH EQUILIBRIUM REACTIONS

 Cp, KJ/(KG)(K)    8.6930   8.4495
 CONDUCTIVITY     17.5190  16.1979
 PRANDTL NUMBER    0.5684   0.5749

  WITH FROZEN REACTIONS

 Cp, KJ/(KG)(K)    3.3884   3.3634
 CONDUCTIVITY      5.2682   4.9907
 PRANDTL NUMBER    0.7367   0.7427

 PERFORMANCE PARAMETERS

 Ae/At                      1.0000
 CSTAR, M/SEC               2217.4
 CF                         0.6547
 Ivac, M/SEC                2733.3
 Isp, M/SEC                 1451.7


 MOLE FRACTIONS

 *H              2.4777-2 2.1025-2
 HO2             1.9725-4 1.2562-4
 *H2             1.3096-1 1.2230-1
 H2O             7.4154-1 7.6877-1
 H2O2            5.8607-5 3.5568-5
 *O              7.8504-3 6.1875-3
 *OH             7.7705-2 6.6636-2
 *O2             1.6910-2 1.4927-2

  * THERMODYNAMIC PROPERTIES FITTED TO 20000.K

 NOTE. WEIGHT FRACTION OF FUEL IN TOTAL FUELS AND OF OXIDANT IN TOTAL OXIDANTS

 WARNING!!  FREEZING IS NOT ALLOWED AT A SUBSONIC PRESSURE RATIO FOR nfz GREATER
 THAN 1. FROZEN PERFORMANCE CALCULATIONS WERE OMITTED (ROCKET)



              THEORETICAL ROCKET PERFORMANCE ASSUMING EQUILIBRIUM

           COMPOSITION DURING EXPANSION FROM INFINITE AREA COMBUSTOR

 Pin =  2939.2 PSIA
 CASE = _______________

             REACTANT                    WT FRACTION      ENERGY      TEMP
                                          (SEE NOTE)     KJ/KG-MOL      K  
 FUEL        H2(L)                        1.0000000     -9012.000     20.270
 OXIDANT     O2(L)                        1.0000000    -12979.000     90.170

 O/F=    7.60000  %FUEL= 11.627907  R,EQ.RATIO= 1.044300  PHI,EQ.RATIO= 1.044300

                 CHAMBER   THROAT
 Pinf/P            1.0000   1.7299
 P, BAR            202.65   117.15
 T, K             3739.15  3547.77
 RHO, KG/CU M    1.0362 1 6.3898 0
 H, KJ/KG         -878.27 -1916.08
 U, KJ/KG        -2833.89 -3749.42
 G, KJ/KG        -58637.9 -56719.5
 S, KJ/(KG)(K)    15.4473  15.4473

 M, (1/n)          15.897   16.090
 (dLV/dLP)t      -1.03606 -1.03166
 (dLV/dLT)p        1.6037   1.5593
 Cp, KJ/(KG)(K)    8.6771   8.4677
 GAMMAs            1.1350   1.1321
 SON VEL,M/SEC     1489.9   1440.7
 MACH NUMBER        0.000    1.000

 TRANSPORT PROPERTIES (GASES ONLY)
   CONDUCTIVITY IN UNITS OF MILLIWATTS/(CM)(K)

 VISC,MILLIPOISE   1.1493   1.1061

  WITH EQUILIBRIUM REACTIONS

 Cp, KJ/(KG)(K)    8.6771   8.4677
 CONDUCTIVITY     17.7493  16.5112
 PRANDTL NUMBER    0.5619   0.5673

  WITH FROZEN REACTIONS

 Cp, KJ/(KG)(K)    3.3393   3.3148
 CONDUCTIVITY      5.1965   4.9242
 PRANDTL NUMBER    0.7386   0.7446

 PERFORMANCE PARAMETERS

 Ae/At                      1.0000
 CSTAR, M/SEC               2201.3
 CF                         0.6545
 Ivac, M/SEC                2713.2
 Isp, M/SEC                 1440.7


 MOLE FRACTIONS

 *H              2.3836-2 2.0188-2
 HO2             2.3278-4 1.5168-4
 *H2             1.1928-1 1.1026-1
 H2O             7.4434-1 7.7188-1
 H2O2            6.5665-5 4.0486-5
 *O              8.8065-3 7.0623-3
 *OH             8.2542-2 7.1441-2
 *O2             2.0902-2 1.8968-2

  * THERMODYNAMIC PROPERTIES FITTED TO 20000.K

 NOTE. WEIGHT FRACTION OF FUEL IN TOTAL FUELS AND OF OXIDANT IN TOTAL OXIDANTS

 WARNING!!  FREEZING IS NOT ALLOWED AT A SUBSONIC PRESSURE RATIO FOR nfz GREATER
 THAN 1. FROZEN PERFORMANCE CALCULATIONS WERE OMITTED (ROCKET)










              THEORETICAL ROCKET PERFORMANCE ASSUMING EQUILIBRIUM

           COMPOSITION DURING EXPANSION FROM INFINITE AREA COMBUSTOR

 Pin =  2939.2 PSIA
 CASE = _______________

             REACTANT                    WT FRACTION      ENERGY      TEMP
                                          (SEE NOTE)     KJ/KG-MOL      K  
 FUEL        H2(L)                        1.0000000     -9012.000     20.270
 OXIDANT     O2(L)                        1.0000000    -12979.000     90.170

 O/F=    7.80000  %FUEL= 11.363636  R,EQ.RATIO= 1.017523  PHI,EQ.RATIO= 1.017523

                 CHAMBER   THROAT
 Pinf/P            1.0000   1.7296
 P, BAR            202.65   117.16
 T, K             3740.26  3549.49
 RHO, KG/CU M    1.0518 1 6.4857 0
 H, KJ/KG         -867.53 -1889.80
 U, KJ/KG        -2794.19 -3696.29
 G, KJ/KG        -57976.5 -56085.9
 S, KJ/(KG)(K)    15.2687  15.2687

 M, (1/n)          16.141   16.337
 (dLV/dLP)t      -1.03646 -1.03213
 (dLV/dLT)p        1.6100   1.5671
 Cp, KJ/(KG)(K)    8.6046   8.4132
 GAMMAs            1.1347   1.1318
 SON VEL,M/SEC     1478.6   1429.9
 MACH NUMBER        0.000    1.000

 TRANSPORT PROPERTIES (GASES ONLY)
   CONDUCTIVITY IN UNITS OF MILLIWATTS/(CM)(K)

 VISC,MILLIPOISE   1.1522   1.1090

  WITH EQUILIBRIUM REACTIONS

 Cp, KJ/(KG)(K)    8.6046   8.4132
 CONDUCTIVITY     17.8909  16.7197
 PRANDTL NUMBER    0.5542   0.5580

  WITH FROZEN REACTIONS

 Cp, KJ/(KG)(K)    3.2920   3.2681
 CONDUCTIVITY      5.1258   4.8582
 PRANDTL NUMBER    0.7400   0.7460

 PERFORMANCE PARAMETERS

 Ae/At                      1.0000
 CSTAR, M/SEC               2185.2
 CF                         0.6543
 Ivac, M/SEC                2693.3
 Isp, M/SEC                 1429.9


 MOLE FRACTIONS

 *H              2.2807-2 1.9250-2
 HO2             2.7008-4 1.7927-4
 *H2             1.0872-1 9.9513-2
 H2O             7.4610-1 7.7378-1
 H2O2            7.2635-5 4.5351-5
 *O              9.7316-3 7.9091-3
 *OH             8.6896-2 7.5733-2
 *O2             2.5399-2 2.3594-2

  * THERMODYNAMIC PROPERTIES FITTED TO 20000.K

 NOTE. WEIGHT FRACTION OF FUEL IN TOTAL FUELS AND OF OXIDANT IN TOTAL OXIDANTS

 WARNING!!  FREEZING IS NOT ALLOWED AT A SUBSONIC PRESSURE RATIO FOR nfz GREATER
 THAN 1. FROZEN PERFORMANCE CALCULATIONS WERE OMITTED (ROCKET)










              THEORETICAL ROCKET PERFORMANCE ASSUMING EQUILIBRIUM

           COMPOSITION DURING EXPANSION FROM INFINITE AREA COMBUSTOR

 Pin =  2939.2 PSIA
 CASE = _______________

             REACTANT                    WT FRACTION      ENERGY      TEMP
                                          (SEE NOTE)     KJ/KG-MOL      K  
 FUEL        H2(L)                        1.0000000     -9012.000     20.270
 OXIDANT     O2(L)                        1.0000000    -12979.000     90.170

 O/F=    8.00000  %FUEL= 11.111111  R,EQ.RATIO= 0.992085  PHI,EQ.RATIO= 0.992085

                 CHAMBER   THROAT
 Pinf/P            1.0000   1.7296
 P, BAR            202.65   117.17
 T, K             3738.81  3548.28
 RHO, KG/CU M    1.0676 1 6.5826 0
 H, KJ/KG         -857.26 -1864.40
 U, KJ/KG        -2755.52 -3644.38
 G, KJ/KG        -57302.1 -55432.8
 S, KJ/(KG)(K)    15.0970  15.0970

 M, (1/n)          16.376   16.574
 (dLV/dLP)t      -1.03642 -1.03211
 (dLV/dLT)p        1.6096   1.5670
 Cp, KJ/(KG)(K)    8.4854   8.2986
 GAMMAs            1.1346   1.1316
 SON VEL,M/SEC     1467.5   1419.3
 MACH NUMBER        0.000    1.000

 TRANSPORT PROPERTIES (GASES ONLY)
   CONDUCTIVITY IN UNITS OF MILLIWATTS/(CM)(K)

 VISC,MILLIPOISE   1.1542   1.1109

  WITH EQUILIBRIUM REACTIONS

[...]
 RHO, KG/CU M    1.5277 1 9.4259 0
 H, KJ/KG         -676.60 -1385.17
 U, KJ/KG        -2003.10 -2621.70
 G, KJ/KG        -40780.1 -39065.8
 S, KJ/(KG)(K)    11.9027  11.9027

 M, (1/n)          21.119   21.286
 (dLV/dLP)t      -1.01285 -1.00981
 (dLV/dLT)p        1.2498   1.2050
 Cp, KJ/(KG)(K)    4.4068   4.1328
 GAMMAs            1.1451   1.1461
 SON VEL,M/SEC     1232.5   1190.4
 MACH NUMBER        0.000    1.000

 TRANSPORT PROPERTIES (GASES ONLY)
   CONDUCTIVITY IN UNITS OF MILLIWATTS/(CM)(K)

 VISC,MILLIPOISE   1.0788   1.0297

  WITH EQUILIBRIUM REACTIONS

 Cp, KJ/(KG)(K)    4.4068   4.1328
 CONDUCTIVITY      8.7537   7.6187
 PRANDTL NUMBER    0.5431   0.5586

  WITH FROZEN REACTIONS

 Cp, KJ/(KG)(K)    2.4246   2.4020
 CONDUCTIVITY      3.5993   3.3870
 PRANDTL NUMBER    0.7267   0.7303

 PERFORMANCE PARAMETERS

 Ae/At                      1.0000
 CSTAR, M/SEC               1806.0
 CF                         0.6592
 Ivac, M/SEC                2229.2
 Isp, M/SEC                 1190.4


 MOLE FRACTIONS

 *H              3.3901-3 2.2816-3
 HO2             8.5157-4 5.6004-4
 *H2             1.2319-2 9.2391-3
 H2O             6.4325-1 6.6026-1
 H2O2            1.3052-4 7.9299-5
 *O              1.2203-2 9.0297-3
 *OH             8.1168-2 6.5910-2
 *O2             2.4668-1 2.5263-1

  * THERMODYNAMIC PROPERTIES FITTED TO 20000.K

 NOTE. WEIGHT FRACTION OF FUEL IN TOTAL FUELS AND OF OXIDANT IN TOTAL OXIDANTS

 WARNING!!  FREEZING IS NOT ALLOWED AT A SUBSONIC PRESSURE RATIO FOR nfz GREATER
 THAN 1. FROZEN PERFORMANCE CALCULATIONS WERE OMITTED (ROCKET)










              THEORETICAL ROCKET PERFORMANCE ASSUMING EQUILIBRIUM

           COMPOSITION DURING EXPANSION FROM INFINITE AREA COMBUSTOR

 Pin =  2939.2 PSIA
 CASE = _______________

             REACTANT                    WT FRACTION      ENERGY      TEMP
                                          (SEE NOTE)     KJ/KG-MOL      K  
 FUEL        H2(L)                        1.0000000     -9012.000     20.270
 OXIDANT     O2(L)                        1.0000000    -12979.000     90.170

 O/F=   14.20000  %FUEL=  6.578947  R,EQ.RATIO= 0.558921  PHI,EQ.RATIO= 0.558921

                 CHAMBER   THROAT
 Pinf/P            1.0000   1.7391
 P, BAR            202.65   116.53
 T, K             3355.62  3151.63
 RHO, KG/CU M    1.5420 1 9.5142 0
 H, KJ/KG         -673.04 -1375.27
 U, KJ/KG        -1987.27 -2600.03
 G, KJ/KG        -40390.8 -38678.6
 S, KJ/(KG)(K)    11.8362  11.8362

 M, (1/n)          21.229   21.395
 (dLV/dLP)t      -1.01241 -1.00943
 (dLV/dLT)p        1.2426   1.1983
 Cp, KJ/(KG)(K)    4.3353   4.0621
 GAMMAs            1.1456   1.1467
 SON VEL,M/SEC     1227.0   1185.1
 MACH NUMBER        0.000    1.000

 TRANSPORT PROPERTIES (GASES ONLY)
   CONDUCTIVITY IN UNITS OF MILLIWATTS/(CM)(K)

 VISC,MILLIPOISE   1.0755   1.0264

  WITH EQUILIBRIUM REACTIONS

 Cp, KJ/(KG)(K)    4.3353   4.0621
 CONDUCTIVITY      8.5410   7.4199
 PRANDTL NUMBER    0.5459   0.5619

  WITH FROZEN REACTIONS

 Cp, KJ/(KG)(K)    2.4080   2.3853
 CONDUCTIVITY      3.5661   3.3545
 PRANDTL NUMBER    0.7263   0.7298

 PERFORMANCE PARAMETERS

 Ae/At                      1.0000
 CSTAR, M/SEC               1797.3
 CF                         0.6594
 Ivac, M/SEC                2218.6
 Isp, M/SEC                 1185.1


 MOLE FRACTIONS

 *H              3.1874-3 2.1268-3
 HO2             8.4934-4 5.5648-4
 *H2             1.1644-2 8.6792-3
 H2O             6.3924-1 6.5597-1
 H2O2            1.2932-4 7.8312-5
 *O              1.1916-2 8.7614-3
 *OH             7.9602-2 6.4372-2
 *O2             2.5343-1 2.5945-1

  * THERMODYNAMIC PROPERTIES FITTED TO 20000.K

 NOTE. WEIGHT FRACTION OF FUEL IN TOTAL FUELS AND OF OXIDANT IN TOTAL OXIDANTS

 WARNING!!  FREEZING IS NOT ALLOWED AT A SUBSONIC PRESSURE RATIO FOR nfz GREATER
 THAN 1. FROZEN PERFORMANCE CALCULATIONS WERE OMITTED (ROCKET)










              THEORETICAL ROCKET PERFORMANCE ASSUMING EQUILIBRIUM

           COMPOSITION DURING EXPANSION FROM INFINITE AREA COMBUSTOR

 Pin =  2939.2 PSIA
 CASE = _______________

             REACTANT                    WT FRACTION      ENERGY      TEMP
                                          (SEE NOTE)     KJ/KG-MOL      K  
 FUEL        H2(L)                        1.0000000     -9012.000     20.270
 OXIDANT     O2(L)                        1.0000000    -12979.000     90.170

 O/F=   14.40000  %FUEL=  6.493506  R,EQ.RATIO= 0.551159  PHI,EQ.RATIO= 0.551159

                 CHAMBER   THROAT
 Pinf/P            1.0000   1.7395
 P, BAR            202.65   116.50
 T, K             3342.03  3137.60
 RHO, KG/CU M    1.5562 1 9.6022 0
 H, KJ/KG         -669.56 -1365.61
 U, KJ/KG        -1971.82 -2578.85
 G, KJ/KG        -40009.5 -38299.1
 S, KJ/(KG)(K)    11.7713  11.7713

 M, (1/n)          21.338   21.502
 (dLV/dLP)t      -1.01199 -1.00906
 (dLV/dLT)p        1.2357   1.1919
 Cp, KJ/(KG)(K)    4.2660   3.9938
 GAMMAs            1.1461   1.1474
 SON VEL,M/SEC     1221.7   1179.9
 MACH NUMBER        0.000    1.000

 TRANSPORT PROPERTIES (GASES ONLY)
   CONDUCTIVITY IN UNITS OF MILLIWATTS/(CM)(K)

 VISC,MILLIPOISE   1.0723   1.0230

  WITH EQUILIBRIUM REACTIONS

 Cp, KJ/(KG)(K)    4.2660   3.9938
 CONDUCTIVITY      8.3362   7.2291
 PRANDTL NUMBER    0.5487   0.5652

  WITH FROZEN REACTIONS

 Cp, KJ/(KG)(K)    2.3918   2.3690
 CONDUCTIVITY      3.5335   3.3227
 PRANDTL NUMBER    0.7258   0.7294

 PERFORMANCE PARAMETERS

 Ae/At                      1.0000
 CSTAR, M/SEC               1788.7
 CF                         0.6596
 Ivac, M/SEC                2208.2
 Isp, M/SEC                 1179.9


 MOLE FRACTIONS

 *H              2.9971-3 1.9826-3
 HO2             8.4639-4 5.5245-4
 *H2             1.1010-2 8.1558-3
 H2O             6.3525-1 6.5171-1
 H2O2            1.2806-4 7.7291-5
 *O              1.1628-2 8.4947-3
 *OH             7.8039-2 6.2845-2
 *O2             2.6009-1 2.6618-1

  * THERMODYNAMIC PROPERTIES FITTED TO 20000.K

 NOTE. WEIGHT FRACTION OF FUEL IN TOTAL FUELS AND OF OXIDANT IN TOTAL OXIDANTS

 WARNING!!  FREEZING IS NOT ALLOWED AT A SUBSONIC PRESSURE RATIO FOR nfz GREATER
 THAN 1. FROZEN PERFORMANCE CALCULATIONS WERE OMITTED (ROCKET)










              THEORETICAL ROCKET PERFORMANCE ASSUMING EQUILIBRIUM

           COMPOSITION DURING EXPANSION FROM INFINITE AREA COMBUSTOR

 Pin =  2939.2 PSIA
 CASE = _______________

             REACTANT                    WT FRACTION      ENERGY      TEMP
                                          (SEE NOTE)     KJ/KG-MOL      K  
 FUEL        H2(L)                        1.0000000     -9012.000     20.270
 OXIDANT     O2(L)                        1.0000000    -12979.000     90.170

 O/F=   14.60000  %FUEL=  6.410256  R,EQ.RATIO= 0.543608  PHI,EQ.RATIO= 0.543608

                 CHAMBER   THROAT
 Pinf/P            1.0000   1.7400
 P, BAR            202.65   116.47
 T, K             3328.51  3123.62
 RHO, KG/CU M    1.5703 1 9.6897 0
 H, KJ/KG         -666.18 -1356.18
 U, KJ/KG        -1956.71 -2558.15
 G, KJ/KG        -39635.8 -37927.0
 S, KJ/(KG)(K)    11.7078  11.7078

 M, (1/n)          21.445   21.607
 (dLV/dLP)t      -1.01159 -1.00872
 (dLV/dLT)p        1.2290   1.1856
 Cp, KJ/(KG)(K)    4.1989   3.9277
 GAMMAs            1.1466   1.1481
 SON VEL,M/SEC     1216.5   1174.7
 MACH NUMBER        0.000    1.000

 TRANSPORT PROPERTIES (GASES ONLY)
   CONDUCTIVITY IN UNITS OF MILLIWATTS/(CM)(K)

 VISC,MILLIPOISE   1.0691   1.0197

  WITH EQUILIBRIUM REACTIONS

 Cp, KJ/(KG)(K)    4.1989   3.9277
 CONDUCTIVITY      8.1387   7.0457
 PRANDTL NUMBER    0.5515   0.5684

  WITH FROZEN REACTIONS

 Cp, KJ/(KG)(K)    2.3760   2.3531
 CONDUCTIVITY      3.5016   3.2915
 PRANDTL NUMBER    0.7254   0.7290

 PERFORMANCE PARAMETERS

 Ae/At                      1.0000
 CSTAR, M/SEC               1780.3
 CF                         0.6598
 Ivac, M/SEC                2197.9
 Isp, M/SEC                 1174.7


 MOLE FRACTIONS

 *H              2.8183-3 1.8480-3
 HO2             8.4279-4 5.4799-4
 *H2             1.0415-2 7.6661-3
 H2O             6.3130-1 6.4748-1
 H2O2            1.2675-4 7.6240-5
 *O              1.1340-2 8.2304-3
 *OH             7.6482-2 6.1331-2
 *O2             2.6667-1 2.7282-1

  * THERMODYNAMIC PROPERTIES FITTED TO 20000.K

 NOTE. WEIGHT FRACTION OF FUEL IN TOTAL FUELS AND OF OXIDANT IN TOTAL OXIDANTS

 WARNING!!  FREEZING IS NOT ALLOWED AT A SUBSONIC PRESSURE RATIO FOR nfz GREATER
 THAN 1. FROZEN PERFORMANCE CALCULATIONS WERE OMITTED (ROCKET)










              THEORETICAL ROCKET PERFORMANCE ASSUMING EQUILIBRIUM

           COMPOSITION DURING EXPANSION FROM INFINITE AREA COMBUSTOR

 Pin =  2939.2 PSIA
 CASE = _______________

             REACTANT                    WT FRACTION      ENERGY      TEMP
                                          (SEE NOTE)     KJ/KG-MOL      K  
 FUEL        H2(L)                        1.0000000     -9012.000     20.270
 OXIDANT     O2(L)                        1.0000000    -12979.000     90.170

 O/F=   14.80000  %FUEL=  6.329114  R,EQ.RATIO= 0.536262  PHI,EQ.RATIO= 0.536262

                 CHAMBER   THROAT
 Pinf/P            1.0000   1.7404
 P, BAR            202.65   116.44
 T, K             3315.04  3109.70
 RHO, KG/CU M    1.5844 1 9.7770 0
 H, KJ/KG         -662.88 -1346.97
 U, KJ/KG        -1941.95 -2537.92
 G, KJ/KG        -39269.4 -37562.2
 S, KJ/(KG)(K)    11.6459  11.6459

 M, (1/n)          21.549   21.710
 (dLV/dLP)t      -1.01120 -1.00838
 (dLV/dLT)p        1.2225   1.1796
 Cp, KJ/(KG)(K)    4.1339   3.8636
 GAMMAs            1.1472   1.1488
 SON VEL,M/SEC     1211.3   1169.7
 MACH NUMBER        0.000    1.000

 TRANSPORT PROPERTIES (GASES ONLY)
   CONDUCTIVITY IN UNITS OF MILLIWATTS/(CM)(K)

 VISC,MILLIPOISE   1.0658   1.0163

  WITH EQUILIBRIUM REACTIONS

 Cp, KJ/(KG)(K)    4.1339   3.8636
 CONDUCTIVITY      7.9484   6.8695
 PRANDTL NUMBER    0.5543   0.5716

  WITH FROZEN REACTIONS

 Cp, KJ/(KG)(K)    2.3605   2.3376
 CONDUCTIVITY      3.4703   3.2608
 PRANDTL NUMBER    0.7250   0.7286

 PERFORMANCE PARAMETERS

 Ae/At                      1.0000
 CSTAR, M/SEC               1772.0
 CF                         0.6601
 Ivac, M/SEC                2187.9
 Isp, M/SEC                 1169.7


 MOLE FRACTIONS

 *H              2.6503-3 1.7224-3
 HO2             8.3856-4 5.4313-4
 *H2             9.8551-3 7.2078-3
 H2O             6.2738-1 6.4329-1
 H2O2            1.2538-4 7.5162-5
 *O              1.1052-2 7.9689-3
 *OH             7.4933-2 5.9832-2
 *O2             2.7316-1 2.7936-1

  * THERMODYNAMIC PROPERTIES FITTED TO 20000.K

 NOTE. WEIGHT FRACTION OF FUEL IN TOTAL FUELS AND OF OXIDANT IN TOTAL OXIDANTS

 WARNING!!  FREEZING IS NOT ALLOWED AT A SUBSONIC PRESSURE RATIO FOR nfz GREATER
 THAN 1. FROZEN PERFORMANCE CALCULATIONS WERE OMITTED (ROCKET)










              THEORETICAL ROCKET PERFORMANCE ASSUMING EQUILIBRIUM

           COMPOSITION DURING EXPANSION FROM INFINITE AREA COMBUSTOR

 Pin =  2939.2 PSIA
 CASE = _______________

             REACTANT                    WT FRACTION      ENERGY      TEMP
                                          (SEE NOTE)     KJ/KG-MOL      K  
 FUEL        H2(L)                        1.0000000     -9012.000     20.270
 OXIDANT     O2(L)                        1.0000000    -12979.000     90.170

 O/F=   15.00000  %FUEL=  6.250000  R,EQ.RATIO= 0.529112  PHI,EQ.RATIO= 0.529112

                 CHAMBER   THROAT
 Pinf/P            1.0000   1.7409
 P, BAR            202.65   116.41
 T, K             3301.63  3095.84
 RHO, KG/CU M    1.5984 1 9.8639 0
 H, KJ/KG         -659.66 -1337.97
 U, KJ/KG        -1927.51 -2518.12
 G, KJ/KG        -38910.1 -37204.3
 S, KJ/(KG)(K)    11.5853  11.5853

 M, (1/n)          21.652   21.811
 (dLV/dLP)t      -1.01083 -1.00806
 (dLV/dLT)p        1.2162   1.1737
 Cp, KJ/(KG)(K)    4.0709   3.8016
 GAMMAs            1.1477   1.1495
 SON VEL,M/SEC     1206.3   1164.7
 MACH NUMBER        0.000    1.000

 TRANSPORT PROPERTIES (GASES ONLY)
   CONDUCTIVITY IN UNITS OF MILLIWATTS/(CM)(K)

 VISC,MILLIPOISE   1.0626   1.0130

  WITH EQUILIBRIUM REACTIONS

 Cp, KJ/(KG)(K)    4.0709   3.8016
 CONDUCTIVITY      7.7649   6.7000
 PRANDTL NUMBER    0.5571   0.5748

  WITH FROZEN REACTIONS

 Cp, KJ/(KG)(K)    2.3455   2.3224
 CONDUCTIVITY      3.4395   3.2307
 PRANDTL NUMBER    0.7246   0.7282

 PERFORMANCE PARAMETERS

 Ae/At                      1.0000
 CSTAR, M/SEC               1763.9
 CF                         0.6603
 Ivac, M/SEC                2178.0
 Isp, M/SEC                 1164.7


 MOLE FRACTIONS

 *H              2.4924-3 1.6053-3
 HO2             8.3376-4 5.3791-4
 *H2             9.3281-3 6.7785-3
 H2O             6.2348-1 6.3913-1
 H2O2            1.2397-4 7.4062-5
 *O              1.0766-2 7.7108-3
 *OH             7.3392-2 5.8349-2
 *O2             2.7957-1 2.8581-1

  * THERMODYNAMIC PROPERTIES FITTED TO 20000.K

 NOTE. WEIGHT FRACTION OF FUEL IN TOTAL FUELS AND OF OXIDANT IN TOTAL OXIDANTS

 WARNING!!  FREEZING IS NOT ALLOWED AT A SUBSONIC PRESSURE RATIO FOR nfz GREATER
 THAN 1. FROZEN PERFORMANCE CALCULATIONS WERE OMITTED (ROCKET)










              THEORETICAL ROCKET PERFORMANCE ASSUMING EQUILIBRIUM

           COMPOSITION DURING EXPANSION FROM INFINITE AREA COMBUSTOR

 Pin =  2939.2 PSIA
 CASE = _______________

             REACTANT                    WT FRACTION      ENERGY      TEMP
                                          (SEE NOTE)     KJ/KG-MOL      K  
 FUEL        H2(L)                        1.0000000     -9012.000     20.270
 OXIDANT     O2(L)                        1.0000000    -12979.000     90.170

 O/F=   15.20000  %FUEL=  6.172840  R,EQ.RATIO= 0.522150  PHI,EQ.RATIO= 0.522150

                 CHAMBER   THROAT
 Pinf/P            1.0000   1.7413
 P, BAR            202.65   116.38
 T, K             3288.28  3082.03
 RHO, KG/CU M    1.6123 1 9.9504 0
 H, KJ/KG         -656.53 -1329.18
 U, KJ/KG        -1913.39 -2498.76
 G, KJ/KG        -38557.7 -36853.1
 S, KJ/(KG)(K)    11.5261  11.5261

 M, (1/n)          21.753   21.910
 (dLV/dLP)t      -1.01046 -1.00775
 (dLV/dLT)p        1.2101   1.1681
 Cp, KJ/(KG)(K)    4.0097   3.7415
 GAMMAs            1.1483   1.1503
 SON VEL,M/SEC     1201.3   1159.9
 MACH NUMBER        0.000    1.000

 TRANSPORT PROPERTIES (GASES ONLY)
   CONDUCTIVITY IN UNITS OF MILLIWATTS/(CM)(K)

 VISC,MILLIPOISE   1.0595   1.0097

  WITH EQUILIBRIUM REACTIONS

 Cp, KJ/(KG)(K)    4.0097   3.7415
 CONDUCTIVITY      7.5879   6.5370
 PRANDTL NUMBER    0.5599   0.5779

  WITH FROZEN REACTIONS

 Cp, KJ/(KG)(K)    2.3307   2.3076
 CONDUCTIVITY      3.4094   3.2012
 PRANDTL NUMBER    0.7243   0.7279

 PERFORMANCE PARAMETERS

 Ae/At                      1.0000
 CSTAR, M/SEC               1755.9
 CF                         0.6606
 Ivac, M/SEC                2168.2
 Isp, M/SEC                 1159.9


 MOLE FRACTIONS

 *H              2.3440-3 1.4961-3
 HO2             8.2843-4 5.3236-4
 *H2             8.8320-3 6.3761-3
 H2O             6.1963-1 6.3501-1
 H2O2            1.2252-4 7.2941-5
 *O              1.0481-2 7.4563-3
 *OH             7.1864-2 5.6885-2
 *O2             2.8590-1 2.9217-1

  * THERMODYNAMIC PROPERTIES FITTED TO 20000.K

 NOTE. WEIGHT FRACTION OF FUEL IN TOTAL FUELS AND OF OXIDANT IN TOTAL OXIDANTS

 WARNING!!  FREEZING IS NOT ALLOWED AT A SUBSONIC PRESSURE RATIO FOR nfz GREATER
 THAN 1. FROZEN PERFORMANCE CALCULATIONS WERE OMITTED (ROCKET)










              THEORETICAL ROCKET PERFORMANCE ASSUMING EQUILIBRIUM

           COMPOSITION DURING EXPANSION FROM INFINITE AREA COMBUSTOR

 Pin =  2939.2 PSIA
 CASE = _______________

             REACTANT                    WT FRACTION      ENERGY      TEMP
                                          (SEE NOTE)     KJ/KG-MOL      K  
 FUEL        H2(L)                        1.0000000     -9012.000     20.270
 OXIDANT     O2(L)                        1.0000000    -12979.000     90.170

 O/F=   15.40000  %FUEL=  6.097561  R,EQ.RATIO= 0.515369  PHI,EQ.RATIO= 0.515369

                 CHAMBER   THROAT
 Pinf/P            1.0000   1.7418
 P, BAR            202.65   116.35
 T, K             3275.00  3068.28
 RHO, KG/CU M    1.6263 1 1.0037 1
 H, KJ/KG         -653.47 -1320.59
 U, KJ/KG        -1899.58 -2479.80
 G, KJ/KG        -38212.0 -36508.5
 S, KJ/(KG)(K)    11.4683  11.4683

 M, (1/n)          21.852   22.008
 (dLV/dLP)t      -1.01012 -1.00746
 (dLV/dLT)p        1.2042   1.1626
 Cp, KJ/(KG)(K)    3.9504   3.6833
 GAMMAs            1.1488   1.1510
 SON VEL,M/SEC     1196.5   1155.1
 MACH NUMBER        0.000    1.000

 TRANSPORT PROPERTIES (GASES ONLY)
   CONDUCTIVITY IN UNITS OF MILLIWATTS/(CM)(K)

 VISC,MILLIPOISE   1.0563   1.0065

  WITH EQUILIBRIUM REACTIONS

 Cp, KJ/(KG)(K)    3.9504   3.6833
 CONDUCTIVITY      7.4170   6.3801
 PRANDTL NUMBER    0.5626   0.5810

  WITH FROZEN REACTIONS

 Cp, KJ/(KG)(K)    2.3164   2.2931
 CONDUCTIVITY      3.3798   3.1722
 PRANDTL NUMBER    0.7239   0.7276

 PERFORMANCE PARAMETERS

 Ae/At                      1.0000
 CSTAR, M/SEC               1748.0
 CF                         0.6608
 Ivac, M/SEC                2158.7
 Isp, M/SEC                 1155.1


 MOLE FRACTIONS

 *H              2.2044-3 1.3941-3
 HO2             8.2260-4 5.2650-4
 *H2             8.3645-3 5.9988-3
 H2O             6.1580-1 6.3092-1
 H2O2            1.2104-4 7.1805-5
 *O              1.0199-2 7.2060-3
 *OH             7.0347-2 5.5439-2
 *O2             2.9214-1 2.9844-1

  * THERMODYNAMIC PROPERTIES FITTED TO 20000.K

 NOTE. WEIGHT FRACTION OF FUEL IN TOTAL FUELS AND OF OXIDANT IN TOTAL OXIDANTS

 WARNING!!  FREEZING IS NOT ALLOWED AT A SUBSONIC PRESSURE RATIO FOR nfz GREATER
 THAN 1. FROZEN PERFORMANCE CALCULATIONS WERE OMITTED (ROCKET)










              THEORETICAL ROCKET PERFORMANCE ASSUMING EQUILIBRIUM

           COMPOSITION DURING EXPANSION FROM INFINITE AREA COMBUSTOR

 Pin =  2939.2 PSIA
 CASE = _______________

             REACTANT                    WT FRACTION      ENERGY      TEMP
                                          (SEE NOTE)     KJ/KG-MOL      K  
 FUEL        H2(L)                        1.0000000     -9012.000     20.270
 OXIDANT     O2(L)                        1.0000000    -12979.000     90.170

 O/F=   15.00000  %FUEL=  6.250000  R,EQ.RATIO= 0.529112  PHI,EQ.RATIO= 0.529112

                 CHAMBER   THROAT
 Pinf/P            1.0000   1.7409
 P, BAR            202.65   116.41
 T, K             3301.63  3095.84
 RHO, KG/CU M    1.5984 1 9.8639 0
 H, KJ/KG         -659.66 -1337.97
 U, KJ/KG        -1927.51 -2518.12
 G, KJ/KG        -38910.1 -37204.3
 S, KJ/(KG)(K)    11.5853  11.5853

 M, (1/n)          21.652   21.811
 (dLV/dLP)t      -1.01083 -1.00806
 (dLV/dLT)p        1.2162   1.1737
 Cp, KJ/(KG)(K)    4.0709   3.8016
 GAMMAs            1.1477   1.1495
 SON VEL,M/SEC     1206.3   1164.7
 MACH NUMBER        0.000    1.000

 TRANSPORT PROPERTIES (GASES ONLY)
   CONDUCTIVITY IN UNITS OF MILLIWATTS/(CM)(K)

 VISC,MILLIPOISE   1.0626   1.0130

  WITH EQUILIBRIUM REACTIONS

 Cp, KJ/(KG)(K)    4.0709   3.8016
 CONDUCTIVITY      7.7649   6.7000
 PRANDTL NUMBER    0.5571   0.5748

  WITH FROZEN REACTIONS

 Cp, KJ/(KG)(K)    2.3455   2.3224
 CONDUCTIVITY      3.4395   3.2307
 PRANDTL NUMBER    0.7246   0.7282

 PERFORMANCE PARAMETERS

 Ae/At                      1.0000
 CSTAR, M/SEC               1763.9
 CF                         0.6603
 Ivac, M/SEC                2178.0
 Isp, M/SEC                 1164.7


 MOLE FRACTIONS

 *H              2.4924-3 1.6053-3
 HO2             8.3376-4 5.3791-4
 *H2             9.3281-3 6.7785-3
 H2O             6.2348-1 6.3913-1
 H2O2            1.2397-4 7.4062-5
 *O              1.0766-2 7.7108-3
 *OH             7.3392-2 5.8349-2
 *O2             2.7957-1 2.8581-1

  * THERMODYNAMIC PROPERTIES FITTED TO 20000.K

 NOTE. WEIGHT FRACTION OF FUEL IN TOTAL FUELS AND OF OXIDANT IN TOTAL OXIDANTS

 WARNING!!  FREEZING IS NOT ALLOWED AT A SUBSONIC PRESSURE RATIO FOR nfz GREATER
 THAN 1. FROZEN PERFORMANCE CALCULATIONS WERE OMITTED (ROCKET)


