*******************************************************************************

         NASA-GLENN CHEMICAL EQUILIBRIUM PROGRAM CEA2, FEBRUARY 5, 2004
                   BY  BONNIE MCBRIDE AND SANFORD GORDON
      REFS: NASA RP-1311, PART I, 1994 AND NASA RP-1311, PART II, 1996

 *******************************************************************************



  
 ### CEA analysis performed on Sun 16-Jun-2024 02:07:09
  
 # Problem Type: "Rocket" (Infinite Area Combustor)
  
 prob case=RS25Jacob______5209 ro frozen  nfz=5
  
 # Pressure (1 value):
 p,atm= 200
  
 # Oxidizer/Fuel Wt. ratio (30 values):
 o/f= 0.3, 0.4, 0.5, 0.6, 0.7, 0.8, 0.9, 1, 1.1, 1.2, 1.3, 1.4, 1.5, 1.6, 1.7, 1.
 8, 1.9, 2, 2.1, 2.2, 2.3, 2.4, 2.5, 2.6, 2.7, 2.8, 2
  
 # You selected the following fuels and oxidizers:
 reac
 fuel H2(L)             wt%=100.0000
 oxid O2(L)             wt%=100.0000
  
 # You selected these options for output:
 # short version of output
 output short
 # Proportions of any products will be expressed as Mole Fractions.
 # Heat will be expressed as siunits
 output siunits
 # Transport properties calculated
 output transport
  

 # Input prepared by this script:/var/www/sites/cearun.grc.nasa.gov/cgi-bin/CEARU
 N/prepareInputFile.cgi
  
 ### IMPORTANT:  The following line is the end of your CEA input file!
 end



              THEORETICAL ROCKET PERFORMANCE ASSUMING EQUILIBRIUM

           COMPOSITION DURING EXPANSION FROM INFINITE AREA COMBUSTOR

 Pin =  2939.2 PSIA
 CASE = _______________

             REACTANT                    WT FRACTION      ENERGY      TEMP
                                          (SEE NOTE)     KJ/KG-MOL      K  
 FUEL        H2(L)                        1.0000000     -9012.000     20.270
 OXIDANT     O2(L)                        1.0000000    -12979.000     90.170

 O/F=    0.30000  %FUEL= 76.923077  R,EQ.RATIO=26.455609  PHI,EQ.RATIO=26.455609

                 CHAMBER   THROAT
 Pinf/P            1.0000   1.8628
 P, BAR            202.65   108.79
 T, K              346.20   296.13
 RHO, KG/CU M    1.9141 1 1.2031 1
 H, KJ/KG        -3532.45 -4142.07
 U, KJ/KG        -4591.17 -5046.33
 G, KJ/KG        -15514.5 -14391.2
 S, KJ/(KG)(K)    34.6099  34.6099

 M, (1/n)           2.719    2.723
 (dLV/dLP)t      -1.00174 -1.00026
 (dLV/dLT)p        1.0255   1.0046
 Cp, KJ/(KG)(K)   12.8729  11.9178
 GAMMAs            1.3299   1.3483
 SON VEL,M/SEC     1186.6   1104.2
 MACH NUMBER        0.000    1.000

 TRANSPORT PROPERTIES (GASES ONLY)
   CONDUCTIVITY IN UNITS OF MILLIWATTS/(CM)(K)

 VISC,MILLIPOISE  0.09951  0.08905

  WITH EQUILIBRIUM REACTIONS

 Cp, KJ/(KG)(K)   14.2301  14.2689
 CONDUCTIVITY      2.0749   1.8594
 PRANDTL NUMBER    0.6825   0.6833

  WITH FROZEN REACTIONS

 Cp, KJ/(KG)(K)   14.2301  14.2689
 CONDUCTIVITY      2.0749   1.8594
 PRANDTL NUMBER    0.6825   0.6833

 PERFORMANCE PARAMETERS

 Ae/At                      1.0000
 CSTAR, M/SEC               1525.5
 CF                         0.7238
 Ivac, M/SEC                1923.1
 Isp, M/SEC                 1104.2


 MOLE FRACTIONS

 *H2              0.96220  0.96220
 H2O              0.00168  0.00025
 H2O(L)           0.03612  0.03755

  * THERMODYNAMIC PROPERTIES FITTED TO 20000.K

 NOTE. WEIGHT FRACTION OF FUEL IN TOTAL FUELS AND OF OXIDANT IN TOTAL OXIDANTS

 WARNING!!  FREEZING IS NOT ALLOWED AT A SUBSONIC PRESSURE RATIO FOR nfz GREATER
 THAN 1. FROZEN PERFORMANCE CALCULATIONS WERE OMITTED (ROCKET)










              THEORETICAL ROCKET PERFORMANCE ASSUMING EQUILIBRIUM

           COMPOSITION DURING EXPANSION FROM INFINITE AREA COMBUSTOR

 Pin =  2939.2 PSIA
 CASE = RS25Jacob______

             REACTANT                    WT FRACTION      ENERGY      TEMP
                                          (SEE NOTE)     KJ/KG-MOL      K  
 FUEL        H2(L)                        1.0000000     -9012.000     20.270
 OXIDANT     O2(L)                        1.0000000    -12979.000     90.170

 O/F=    0.40000  %FUEL= 71.428571  R,EQ.RATIO=19.841707  PHI,EQ.RATIO=19.841707

                 CHAMBER   THROAT
 Pinf/P            1.0000   1.8170
 P, BAR            202.65   111.53
 T, K              428.45   382.35
 RHO, KG/CU M    1.6471 1 1.0299 1
 H, KJ/KG        -3309.11 -3998.90
 U, KJ/KG        -4539.43 -5081.84
 G, KJ/KG        -18421.8 -17485.3
 S, KJ/(KG)(K)    35.2729  35.2729

 M, (1/n)           2.895    2.936
 (dLV/dLP)t      -1.02644 -1.01242
 (dLV/dLT)p        1.2860   1.1582
 Cp, KJ/(KG)(K)   19.7165  16.7047
 GAMMAs            1.2729   1.2739
 SON VEL,M/SEC     1251.4   1174.6
 MACH NUMBER        0.000    1.000

 TRANSPORT PROPERTIES (GASES ONLY)
   CONDUCTIVITY IN UNITS OF MILLIWATTS/(CM)(K)

 VISC,MILLIPOISE  0.12528  0.11075

  WITH EQUILIBRIUM REACTIONS

 Cp, KJ/(KG)(K)   12.0893  13.2101
 CONDUCTIVITY      2.3202   2.1883
 PRANDTL NUMBER    0.6528   0.6686

  WITH FROZEN REACTIONS

 Cp, KJ/(KG)(K)   12.0893  13.2101
 CONDUCTIVITY      2.3202   2.1883
 PRANDTL NUMBER    0.6528   0.6686

 PERFORMANCE PARAMETERS

 Ae/At                      1.0000
 CSTAR, M/SEC               1675.2
 CF                         0.7011
 Ivac, M/SEC                2096.6
 Isp, M/SEC                 1174.6


 MOLE FRACTIONS

 *H2              0.94960  0.94960
 H2O              0.02511  0.01180
 H2O(L)           0.02529  0.03860

  * THERMODYNAMIC PROPERTIES FITTED TO 20000.K

 NOTE. WEIGHT FRACTION OF FUEL IN TOTAL FUELS AND OF OXIDANT IN TOTAL OXIDANTS

 WARNING!!  FREEZING IS NOT ALLOWED AT A SUBSONIC PRESSURE RATIO FOR nfz GREATER
 THAN 1. FROZEN PERFORMANCE CALCULATIONS WERE OMITTED (ROCKET)










              THEORETICAL ROCKET PERFORMANCE ASSUMING EQUILIBRIUM

           COMPOSITION DURING EXPANSION FROM INFINITE AREA COMBUSTOR

 Pin =  2939.2 PSIA
 CASE = RS25Jacob______

             REACTANT                    WT FRACTION      ENERGY      TEMP
                                          (SEE NOTE)     KJ/KG-MOL      K  
 FUEL        H2(L)                        1.0000000     -9012.000     20.270
 OXIDANT     O2(L)                        1.0000000    -12979.000     90.170

 O/F=    0.50000  %FUEL= 66.666667  R,EQ.RATIO=15.873365  PHI,EQ.RATIO=15.873365

                 CHAMBER   THROAT
 Pinf/P            1.0000   1.7934
 P, BAR            202.65   113.00
 T, K              495.47   433.91
 RHO, KG/CU M    1.4875 1 9.5726 0
 H, KJ/KG        -3115.54 -3852.70
 U, KJ/KG        -4477.91 -5033.11
 G, KJ/KG        -20663.1 -19220.3
 S, KJ/(KG)(K)    35.4163  35.4163

 M, (1/n)           3.024    3.056
 (dLV/dLP)t      -1.00000 -1.05587
 (dLV/dLT)p        1.0000   1.5929
 Cp, KJ/(KG)(K)    9.7972  27.0461
 GAMMAs            1.3902   1.2490
 SON VEL,M/SEC     1376.2   1214.2
 MACH NUMBER        0.000    1.000

 TRANSPORT PROPERTIES (GASES ONLY)
   CONDUCTIVITY IN UNITS OF MILLIWATTS/(CM)(K)

 VISC,MILLIPOISE  0.15285  0.13575

  WITH EQUILIBRIUM REACTIONS

 Cp, KJ/(KG)(K)    9.7972  10.3069
 CONDUCTIVITY      2.4328   2.2516
 PRANDTL NUMBER    0.6155   0.6214

  WITH FROZEN REACTIONS

 Cp, KJ/(KG)(K)    9.7972  10.3069
 CONDUCTIVITY      2.4328   2.2516
 PRANDTL NUMBER    0.6155   0.6214

 PERFORMANCE PARAMETERS

 Ae/At                      1.0000
 CSTAR, M/SEC               1743.5
 CF                         0.6964
 Ivac, M/SEC                2186.4
 Isp, M/SEC                 1214.2


 MOLE FRACTIONS

 *H2              0.93700  0.93700
 H2O              0.06300  0.05235
 H2O(L)           0.00000  0.01064

  * THERMODYNAMIC PROPERTIES FITTED TO 20000.K

 NOTE. WEIGHT FRACTION OF FUEL IN TOTAL FUELS AND OF OXIDANT IN TOTAL OXIDANTS

 WARNING!!  FREEZING IS NOT ALLOWED AT A SUBSONIC PRESSURE RATIO FOR nfz GREATER
 THAN 1. FROZEN PERFORMANCE CALCULATIONS WERE OMITTED (ROCKET)










              THEORETICAL ROCKET PERFORMANCE ASSUMING EQUILIBRIUM

           COMPOSITION DURING EXPANSION FROM INFINITE AREA COMBUSTOR

 Pin =  2939.2 PSIA
 CASE = RS25Jacob______

             REACTANT                    WT FRACTION      ENERGY      TEMP
                                          (SEE NOTE)     KJ/KG-MOL      K  
 FUEL        H2(L)                        1.0000000     -9012.000     20.270
 OXIDANT     O2(L)                        1.0000000    -12979.000     90.170

 O/F=    0.60000  %FUEL= 62.500000  R,EQ.RATIO=13.227805  PHI,EQ.RATIO=13.227805

                 CHAMBER   THROAT
 Pinf/P            1.0000   1.8863
 P, BAR            202.65   107.43
 T, K              594.66   498.06
 RHO, KG/CU M    1.3220 1 8.3678 0
 H, KJ/KG        -2946.17 -3837.67
 U, KJ/KG        -4479.08 -5121.57
 G, KJ/KG        -23883.1 -21373.4
 S, KJ/(KG)(K)    35.2084  35.2084

 M, (1/n)           3.225    3.225
 (dLV/dLP)t      -1.00000 -1.00000
 (dLV/dLT)p        1.0000   1.0000
 Cp, KJ/(KG)(K)    9.2511   9.2089
 GAMMAs            1.3863   1.3887
 SON VEL,M/SEC     1457.8   1335.3
 MACH NUMBER        0.000    1.000

 TRANSPORT PROPERTIES (GASES ONLY)
   CONDUCTIVITY IN UNITS OF MILLIWATTS/(CM)(K)

 VISC,MILLIPOISE  0.17939  0.15736

  WITH EQUILIBRIUM REACTIONS

 Cp, KJ/(KG)(K)    9.2511   9.2089
 CONDUCTIVITY      2.7181   2.3987
 PRANDTL NUMBER    0.6105   0.6041

  WITH FROZEN REACTIONS

 Cp, KJ/(KG)(K)    9.2511   9.2089
 CONDUCTIVITY      2.7181   2.3987
 PRANDTL NUMBER    0.6105   0.6041

 PERFORMANCE PARAMETERS

 Ae/At                      1.0000
 CSTAR, M/SEC               1813.7
 CF                         0.7362
 Ivac, M/SEC                2296.8
 Isp, M/SEC                 1335.3


 MOLE FRACTIONS

 *H2              0.92440  0.92440
 H2O              0.07560  0.07560

  * THERMODYNAMIC PROPERTIES FITTED TO 20000.K

 NOTE. WEIGHT FRACTION OF FUEL IN TOTAL FUELS AND OF OXIDANT IN TOTAL OXIDANTS

 WARNING!!  FREEZING IS NOT ALLOWED AT A SUBSONIC PRESSURE RATIO FOR nfz GREATER
 THAN 1. FROZEN PERFORMANCE CALCULATIONS WERE OMITTED (ROCKET)










              THEORETICAL ROCKET PERFORMANCE ASSUMING EQUILIBRIUM

           COMPOSITION DURING EXPANSION FROM INFINITE AREA COMBUSTOR

 Pin =  2939.2 PSIA
 CASE = RS25Jacob______

             REACTANT                    WT FRACTION      ENERGY      TEMP
                                          (SEE NOTE)     KJ/KG-MOL      K  
 FUEL        H2(L)                        1.0000000     -9012.000     20.270
 OXIDANT     O2(L)                        1.0000000    -12979.000     90.170

 O/F=    0.70000  %FUEL= 58.823529  R,EQ.RATIO=11.338118  PHI,EQ.RATIO=11.338118

                 CHAMBER   THROAT
 Pinf/P            1.0000   1.8842
 P, BAR            202.65   107.55
 T, K              692.72   581.20
 RHO, KG/CU M    1.2058 1 7.6273 0
 H, KJ/KG        -2796.72 -3773.32
 U, KJ/KG        -4477.38 -5183.42
 G, KJ/KG        -26886.6 -23985.2
 S, KJ/(KG)(K)    34.7760  34.7760

 M, (1/n)           3.427    3.427
 (dLV/dLP)t      -1.00000 -1.00000
 (dLV/dLT)p        1.0000   1.0000
 Cp, KJ/(KG)(K)    8.7939   8.7255
 GAMMAs            1.3810   1.3851
 SON VEL,M/SEC     1523.5   1397.6
 MACH NUMBER        0.000    1.000

 TRANSPORT PROPERTIES (GASES ONLY)
   CONDUCTIVITY IN UNITS OF MILLIWATTS/(CM)(K)

 VISC,MILLIPOISE  0.20580  0.18066

  WITH EQUILIBRIUM REACTIONS

 Cp, KJ/(KG)(K)    8.7939   8.7255
 CONDUCTIVITY      2.9841   2.6278
 PRANDTL NUMBER    0.6065   0.5999

  WITH FROZEN REACTIONS

 Cp, KJ/(KG)(K)    8.7939   8.7255
 CONDUCTIVITY      2.9841   2.6278
 PRANDTL NUMBER    0.6065   0.5999

 PERFORMANCE PARAMETERS

 Ae/At                      1.0000
 CSTAR, M/SEC               1901.1
 CF                         0.7351
 Ivac, M/SEC                2406.5
 Isp, M/SEC                 1397.6


 MOLE FRACTIONS

 *H2              0.91180  0.91180
 H2O              0.08820  0.08820

  * THERMODYNAMIC PROPERTIES FITTED TO 20000.K

 NOTE. WEIGHT FRACTION OF FUEL IN TOTAL FUELS AND OF OXIDANT IN TOTAL OXIDANTS

 WARNING!!  FREEZING IS NOT ALLOWED AT A SUBSONIC PRESSURE RATIO FOR nfz GREATER
 THAN 1. FROZEN PERFORMANCE CALCULATIONS WERE OMITTED (ROCKET)










              THEORETICAL ROCKET PERFORMANCE ASSUMING EQUILIBRIUM

           COMPOSITION DURING EXPANSION FROM INFINITE AREA COMBUSTOR

 Pin =  2939.2 PSIA
 CASE = RS25Jacob______

             REACTANT                    WT FRACTION      ENERGY      TEMP
                                          (SEE NOTE)     KJ/KG-MOL      K  
 FUEL        H2(L)                        1.0000000     -9012.000     20.270
 OXIDANT     O2(L)                        1.0000000    -12979.000     90.170

 O/F=    0.80000  %FUEL= 55.555556  R,EQ.RATIO= 9.920853  PHI,EQ.RATIO= 9.920853

                 CHAMBER   THROAT
 Pinf/P            1.0000   1.8815
 P, BAR            202.65   107.71
 T, K              789.36   663.77
 RHO, KG/CU M    1.1204 1 7.0816 0
 H, KJ/KG        -2663.88 -3713.72
 U, KJ/KG        -4472.61 -5234.67
 G, KJ/KG        -29676.7 -26428.6
 S, KJ/(KG)(K)    34.2212  34.2212

 M, (1/n)           3.629    3.629
 (dLV/dLP)t      -1.00000 -1.00000
 (dLV/dLT)p        1.0000   1.0000
 Cp, KJ/(KG)(K)    8.4090   8.3131
 GAMMAs            1.3746   1.3805
 SON VEL,M/SEC     1576.8   1449.0
 MACH NUMBER        0.000    1.000

 TRANSPORT PROPERTIES (GASES ONLY)
   CONDUCTIVITY IN UNITS OF MILLIWATTS/(CM)(K)

 VISC,MILLIPOISE  0.23202  0.20396

  WITH EQUILIBRIUM REACTIONS

 Cp, KJ/(KG)(K)    8.4090   8.3131
 CONDUCTIVITY      3.2336   2.8426
 PRANDTL NUMBER    0.6034   0.5965

  WITH FROZEN REACTIONS

 Cp, KJ/(KG)(K)    8.4090   8.3131
 CONDUCTIVITY      3.2336   2.8426
 PRANDTL NUMBER    0.6034   0.5965

 PERFORMANCE PARAMETERS

 Ae/At                      1.0000
 CSTAR, M/SEC               1974.9
 CF                         0.7337
 Ivac, M/SEC                2498.7
 Isp, M/SEC                 1449.0


 MOLE FRACTIONS

 *H2              0.89920  0.89920
 H2O              0.10080  0.10080

  * THERMODYNAMIC PROPERTIES FITTED TO 20000.K

 NOTE. WEIGHT FRACTION OF FUEL IN TOTAL FUELS AND OF OXIDANT IN TOTAL OXIDANTS

 WARNING!!  FREEZING IS NOT ALLOWED AT A SUBSONIC PRESSURE RATIO FOR nfz GREATER
 THAN 1. FROZEN PERFORMANCE CALCULATIONS WERE OMITTED (ROCKET)










              THEORETICAL ROCKET PERFORMANCE ASSUMING EQUILIBRIUM

           COMPOSITION DURING EXPANSION FROM INFINITE AREA COMBUSTOR

 Pin =  2939.2 PSIA
 CASE = RS25Jacob______

             REACTANT                    WT FRACTION      ENERGY      TEMP
                                          (SEE NOTE)     KJ/KG-MOL      K  
 FUEL        H2(L)                        1.0000000     -9012.000     20.270
 OXIDANT     O2(L)                        1.0000000    -12979.000     90.170

 O/F=    0.90000  %FUEL= 52.631579  R,EQ.RATIO= 8.818536  PHI,EQ.RATIO= 8.818536

                 CHAMBER   THROAT
 Pinf/P            1.0000   1.8782
 P, BAR            202.65   107.89
 T, K              884.35   745.60
 RHO, KG/CU M    1.0556 1 6.6661 0
 H, KJ/KG        -2545.03 -3657.73
 U, KJ/KG        -4464.78 -5276.28
 G, KJ/KG        -32261.5 -28711.9
 S, KJ/(KG)(K)    33.6025  33.6025

 M, (1/n)           3.830    3.830
 (dLV/dLP)t      -1.00000 -1.00000
 (dLV/dLT)p        1.0000   1.0000
 Cp, KJ/(KG)(K)    8.0833   7.9603
 GAMMAs            1.3672   1.3750
 SON VEL,M/SEC     1620.1   1491.8
 MACH NUMBER        0.000    1.000

 TRANSPORT PROPERTIES (GASES ONLY)
   CONDUCTIVITY IN UNITS OF MILLIWATTS/(CM)(K)

 VISC,MILLIPOISE  0.25799  0.22722

  WITH EQUILIBRIUM REACTIONS

 Cp, KJ/(KG)(K)    8.0833   7.9603
 CONDUCTIVITY      3.4680   3.0452
 PRANDTL NUMBER    0.6013   0.5940

  WITH FROZEN REACTIONS

 Cp, KJ/(KG)(K)    8.0833   7.9603
 CONDUCTIVITY      3.4680   3.0452
 PRANDTL NUMBER    0.6013   0.5940

 PERFORMANCE PARAMETERS

 Ae/At                      1.0000
 CSTAR, M/SEC               2037.9
 CF                         0.7320
 Ivac, M/SEC                2576.8
 Isp, M/SEC                 1491.8


 MOLE FRACTIONS

 *H2              0.88660  0.88660
 H2O              0.11340  0.11340

  * THERMODYNAMIC PROPERTIES FITTED TO 20000.K

 NOTE. WEIGHT FRACTION OF FUEL IN TOTAL FUELS AND OF OXIDANT IN TOTAL OXIDANTS

 WARNING!!  FREEZING IS NOT ALLOWED AT A SUBSONIC PRESSURE RATIO FOR nfz GREATER
 THAN 1. FROZEN PERFORMANCE CALCULATIONS WERE OMITTED (ROCKET)










              THEORETICAL ROCKET PERFORMANCE ASSUMING EQUILIBRIUM

           COMPOSITION DURING EXPANSION FROM INFINITE AREA COMBUSTOR

 Pin =  2939.2 PSIA
 CASE = RS25Jacob______

             REACTANT                    WT FRACTION      ENERGY      TEMP
                                          (SEE NOTE)     KJ/KG-MOL      K  
 FUEL        H2(L)                        1.0000000     -9012.000     20.270
 OXIDANT     O2(L)                        1.0000000    -12979.000     90.170

 O/F=    1.00000  %FUEL= 50.000000  R,EQ.RATIO= 7.936683  PHI,EQ.RATIO= 7.936683

                 CHAMBER   THROAT
 Pinf/P            1.0000   1.8745
 P, BAR            202.65   108.11
 T, K              977.49   826.58
 RHO, KG/CU M    1.0053 1 6.3420 0
 H, KJ/KG        -2438.06 -3604.54
 U, KJ/KG        -4453.89 -5309.16
 G, KJ/KG        -34651.1 -30844.5
 S, KJ/(KG)(K)    32.9549  32.9549

 M, (1/n)           4.032    4.032
 (dLV/dLP)t      -1.00000 -1.00000
 (dLV/dLT)p        1.0000   1.0000
 Cp, KJ/(KG)(K)    7.8107   7.6564
 GAMMAs            1.3587   1.3686
 SON VEL,M/SEC     1655.0   1527.4
 MACH NUMBER        0.000    1.000

 TRANSPORT PROPERTIES (GASES ONLY)
   CONDUCTIVITY IN UNITS OF MILLIWATTS/(CM)(K)

 VISC,MILLIPOISE  0.28364  0.25039

  WITH EQUILIBRIUM REACTIONS

 Cp, KJ/(KG)(K)    7.8107   7.6564
 CONDUCTIVITY      3.6877   3.2367
 PRANDTL NUMBER    0.6008   0.5923

  WITH FROZEN REACTIONS

 Cp, KJ/(KG)(K)    7.8107   7.6564
 CONDUCTIVITY      3.6877   3.2367
 PRANDTL NUMBER    0.6008   0.5923

 PERFORMANCE PARAMETERS

 Ae/At                      1.0000
 CSTAR, M/SEC               2092.0
 CF                         0.7301
 Ivac, M/SEC                2643.4
 Isp, M/SEC                 1527.4


 MOLE FRACTIONS

 *H2              0.87400  0.87400
 H2O              0.12600  0.12600

  * THERMODYNAMIC PROPERTIES FITTED TO 20000.K

 NOTE. WEIGHT FRACTION OF FUEL IN TOTAL FUELS AND OF OXIDANT IN TOTAL OXIDANTS

 WARNING!!  FREEZING IS NOT ALLOWED AT A SUBSONIC PRESSURE RATIO FOR nfz GREATER
 THAN 1. FROZEN PERFORMANCE CALCULATIONS WERE OMITTED (ROCKET)










              THEORETICAL ROCKET PERFORMANCE ASSUMING EQUILIBRIUM

           COMPOSITION DURING EXPANSION FROM INFINITE AREA COMBUSTOR

 Pin =  2939.2 PSIA
 CASE = RS25Jacob______

             REACTANT                    WT FRACTION      ENERGY      TEMP
                                          (SEE NOTE)     KJ/KG-MOL      K  
 FUEL        H2(L)                        1.0000000     -9012.000     20.270
 OXIDANT     O2(L)                        1.0000000    -12979.000     90.170

 O/F=    1.10000  %FUEL= 47.619048  R,EQ.RATIO= 7.215166  PHI,EQ.RATIO= 7.215166

                 CHAMBER   THROAT
 Pinf/P            1.0000   1.8704
 P, BAR            202.65   108.34
 T, K             1068.58   906.59
 RHO, KG/CU M    9.6558 0 6.0847 0
 H, KJ/KG        -2341.27 -3553.51
 U, KJ/KG        -4440.02 -5334.10
 G, KJ/KG        -36856.1 -32836.1
 S, KJ/(KG)(K)    32.2997  32.2997

 M, (1/n)           4.233    4.233
 (dLV/dLP)t      -1.00000 -1.00000
 (dLV/dLT)p        1.0000   1.0000
 Cp, KJ/(KG)(K)    7.5758   7.3946
 GAMMAs            1.3500   1.3617
 SON VEL,M/SEC     1683.2   1557.1
 MACH NUMBER        0.000    1.000

 TRANSPORT PROPERTIES (GASES ONLY)
   CONDUCTIVITY IN UNITS OF MILLIWATTS/(CM)(K)

 VISC,MILLIPOISE  0.30885  0.27341

  WITH EQUILIBRIUM REACTIONS

 Cp, KJ/(KG)(K)    7.5758   7.3946
 CONDUCTIVITY      3.8945   3.4178
 PRANDTL NUMBER    0.6008   0.5915

  WITH FROZEN REACTIONS

 Cp, KJ/(KG)(K)    7.5758   7.3946
 CONDUCTIVITY      3.8945   3.4178
 PRANDTL NUMBER    0.6008   0.5915

 PERFORMANCE PARAMETERS

 Ae/At                      1.0000
 CSTAR, M/SEC               2138.9
 CF                         0.7280
 Ivac, M/SEC                2700.6
 Isp, M/SEC                 1557.1


 MOLE FRACTIONS

 *H2              0.86140  0.86140
 H2O              0.13860  0.13860

  * THERMODYNAMIC PROPERTIES FITTED TO 20000.K

 NOTE. WEIGHT FRACTION OF FUEL IN TOTAL FUELS AND OF OXIDANT IN TOTAL OXIDANTS

 WARNING!!  FREEZING IS NOT ALLOWED AT A SUBSONIC PRESSURE RATIO FOR nfz GREATER
 THAN 1. FROZEN PERFORMANCE CALCULATIONS WERE OMITTED (ROCKET)










              THEORETICAL ROCKET PERFORMANCE ASSUMING EQUILIBRIUM

           COMPOSITION DURING EXPANSION FROM INFINITE AREA COMBUSTOR

 Pin =  2939.2 PSIA
 CASE = RS25Jacob______

             REACTANT                    WT FRACTION      ENERGY      TEMP
                                          (SEE NOTE)     KJ/KG-MOL      K  
 FUEL        H2(L)                        1.0000000     -9012.000     20.270
 OXIDANT     O2(L)                        1.0000000    -12979.000     90.170

 O/F=    1.20000  %FUEL= 45.454545  R,EQ.RATIO= 6.613902  PHI,EQ.RATIO= 6.613902

                 CHAMBER   THROAT
 Pinf/P            1.0000   1.8659
 P, BAR            202.65   108.61
 T, K             1157.58   985.52
 RHO, KG/CU M    9.3379 0 5.8783 0
 H, KJ/KG        -2253.29 -3504.07
 U, KJ/KG        -4423.48 -5351.70
 G, KJ/KG        -38890.5 -34695.7
 S, KJ/(KG)(K)    31.6499  31.6499

 M, (1/n)           4.435    4.435
 (dLV/dLP)t      -1.00000 -1.00000
 (dLV/dLT)p        1.0000   1.0000
 Cp, KJ/(KG)(K)    7.3717   7.1717
 GAMMAs            1.3411   1.3539
 SON VEL,M/SEC     1706.0   1581.6
 MACH NUMBER        0.000    1.000

 TRANSPORT PROPERTIES (GASES ONLY)
   CONDUCTIVITY IN UNITS OF MILLIWATTS/(CM)(K)

 VISC,MILLIPOISE  0.33356  0.29624

  WITH EQUILIBRIUM REACTIONS

 Cp, KJ/(KG)(K)    7.3717   7.1717
 CONDUCTIVITY      4.0916   3.5888
 PRANDTL NUMBER    0.6010   0.5920

  WITH FROZEN REACTIONS

 Cp, KJ/(KG)(K)    7.3717   7.1717
 CONDUCTIVITY      4.0916   3.5888
 PRANDTL NUMBER    0.6010   0.5920

 PERFORMANCE PARAMETERS

 Ae/At                      1.0000
 CSTAR, M/SEC               2179.7
 CF                         0.7256
 Ivac, M/SEC                2749.8
 Isp, M/SEC                 1581.6


 MOLE FRACTIONS

 *H2              0.84880  0.84880
 H2O              0.15120  0.15120

  * THERMODYNAMIC PROPERTIES FITTED TO 20000.K

 NOTE. WEIGHT FRACTION OF FUEL IN TOTAL FUELS AND OF OXIDANT IN TOTAL OXIDANTS

 WARNING!!  FREEZING IS NOT ALLOWED AT A SUBSONIC PRESSURE RATIO FOR nfz GREATER
 THAN 1. FROZEN PERFORMANCE CALCULATIONS WERE OMITTED (ROCKET)










              THEORETICAL ROCKET PERFORMANCE ASSUMING EQUILIBRIUM

           COMPOSITION DURING EXPANSION FROM INFINITE AREA COMBUSTOR

 Pin =  2939.2 PSIA
 CASE = RS25Jacob______

             REACTANT                    WT FRACTION      ENERGY      TEMP
                                          (SEE NOTE)     KJ/KG-MOL      K  
 FUEL        H2(L)                        1.0000000     -9012.000     20.270
 OXIDANT     O2(L)                        1.0000000    -12979.000     90.170

 O/F=    1.30000  %FUEL= 43.478261  R,EQ.RATIO= 6.105141  PHI,EQ.RATIO= 6.105141

                 CHAMBER   THROAT
 Pinf/P            1.0000   1.8612
 P, BAR            202.65   108.88
 T, K             1244.44  1063.22
 RHO, KG/CU M    9.0809 0 5.7106 0
 H, KJ/KG        -2172.95 -3456.21
 U, KJ/KG        -4404.56 -5362.84
 G, KJ/KG        -40767.4 -36430.5
 S, KJ/(KG)(K)    31.0136  31.0136

 M, (1/n)           4.637    4.637
 (dLV/dLP)t      -1.00000 -1.00000
 (dLV/dLT)p        1.0000   1.0000
 Cp, KJ/(KG)(K)    7.1910   6.9747
 GAMMAs            1.3322   1.3461
 SON VEL,M/SEC     1724.2   1602.0
 MACH NUMBER        0.000    1.000

 TRANSPORT PROPERTIES (GASES ONLY)
   CONDUCTIVITY IN UNITS OF MILLIWATTS/(CM)(K)

 VISC,MILLIPOISE  0.35781  0.31880

  WITH EQUILIBRIUM REACTIONS

 Cp, KJ/(KG)(K)    7.1910   6.9747
 CONDUCTIVITY      4.2784   3.7509
 PRANDTL NUMBER    0.6014   0.5928

  WITH FROZEN REACTIONS

 Cp, KJ/(KG)(K)    7.1909   6.9747
 CONDUCTIVITY      4.2784   3.7509
 PRANDTL NUMBER    0.6014   0.5928

 PERFORMANCE PARAMETERS

 Ae/At                      1.0000
 CSTAR, M/SEC               2215.1
 CF                         0.7232
 Ivac, M/SEC                2792.2
 Isp, M/SEC                 1602.0


 MOLE FRACTIONS

 *H2              0.83620  0.83620
 H2O              0.16380  0.16380

  * THERMODYNAMIC PROPERTIES FITTED TO 20000.K

 NOTE. WEIGHT FRACTION OF FUEL IN TOTAL FUELS AND OF OXIDANT IN TOTAL OXIDANTS

 WARNING!!  FREEZING IS NOT ALLOWED AT A SUBSONIC PRESSURE RATIO FOR nfz GREATER
 THAN 1. FROZEN PERFORMANCE CALCULATIONS WERE OMITTED (ROCKET)










              THEORETICAL ROCKET PERFORMANCE ASSUMING EQUILIBRIUM

           COMPOSITION DURING EXPANSION FROM INFINITE AREA COMBUSTOR

 Pin =  2939.2 PSIA
 CASE = RS25Jacob______

             REACTANT                    WT FRACTION      ENERGY      TEMP
                                          (SEE NOTE)     KJ/KG-MOL      K  
 FUEL        H2(L)                        1.0000000     -9012.000     20.270
 OXIDANT     O2(L)                        1.0000000    -12979.000     90.170

 O/F=    1.40000  %FUEL= 41.666667  R,EQ.RATIO= 5.669059  PHI,EQ.RATIO= 5.669059

                 CHAMBER   THROAT
 Pinf/P            1.0000   1.8564
 P, BAR            202.65   109.16
 T, K             1329.19  1139.66
 RHO, KG/CU M    8.8716 0 5.5736 0
 H, KJ/KG        -2099.32 -3409.68
 U, KJ/KG        -4383.58 -5368.24
 G, KJ/KG        -42500.6 -38050.2
 S, KJ/(KG)(K)    30.3954  30.3954

 M, (1/n)           4.838    4.838
 (dLV/dLP)t      -1.00000 -1.00000
 (dLV/dLT)p        1.0000   1.0000
 Cp, KJ/(KG)(K)    7.0268   6.8016
 GAMMAs            1.3238   1.3381
 SON VEL,M/SEC     1738.9   1618.9
 MACH NUMBER        0.000    1.000

 TRANSPORT PROPERTIES (GASES ONLY)
   CONDUCTIVITY IN UNITS OF MILLIWATTS/(CM)(K)

 VISC,MILLIPOISE  0.38165  0.34101

  WITH EQUILIBRIUM REACTIONS

 Cp, KJ/(KG)(K)    7.0268   6.8016
 CONDUCTIVITY      4.4545   3.9064
 PRANDTL NUMBER    0.6020   0.5937

  WITH FROZEN REACTIONS

 Cp, KJ/(KG)(K)    7.0267   6.8016
 CONDUCTIVITY      4.4544   3.9064
 PRANDTL NUMBER    0.6020   0.5937

 PERFORMANCE PARAMETERS

 Ae/At                      1.0000
 CSTAR, M/SEC               2245.9
 CF                         0.7208
 Ivac, M/SEC                2828.7
 Isp, M/SEC                 1618.9


 MOLE FRACTIONS

 *H2              0.82360  0.82360
 H2O              0.17640  0.17640

  * THERMODYNAMIC PROPERTIES FITTED TO 20000.K

 NOTE. WEIGHT FRACTION OF FUEL IN TOTAL FUELS AND OF OXIDANT IN TOTAL OXIDANTS

 WARNING!!  FREEZING IS NOT ALLOWED AT A SUBSONIC PRESSURE RATIO FOR nfz GREATER
 THAN 1. FROZEN PERFORMANCE CALCULATIONS WERE OMITTED (ROCKET)










              THEORETICAL ROCKET PERFORMANCE ASSUMING EQUILIBRIUM

           COMPOSITION DURING EXPANSION FROM INFINITE AREA COMBUSTOR

 Pin =  2939.2 PSIA
 CASE = RS25Jacob______

             REACTANT                    WT FRACTION      ENERGY      TEMP
                                          (SEE NOTE)     KJ/KG-MOL      K  
 FUEL        H2(L)                        1.0000000     -9012.000     20.270
 OXIDANT     O2(L)                        1.0000000    -12979.000     90.170

 O/F=    1.50000  %FUEL= 40.000000  R,EQ.RATIO= 5.291122  PHI,EQ.RATIO= 5.291122

                 CHAMBER   THROAT
 Pinf/P            1.0000   1.8516
 P, BAR            202.65   109.45
 T, K             1411.90  1214.78
 RHO, KG/CU M    8.6998 0 5.4610 0
 H, KJ/KG        -2031.57 -3364.45
 U, KJ/KG        -4360.92 -5368.59
 G, KJ/KG        -44103.4 -39562.4
 S, KJ/(KG)(K)    29.7981  29.7981

 M, (1/n)           5.040    5.040
 (dLV/dLP)t      -1.00000 -1.00000
 (dLV/dLT)p        1.0000   1.0000
 Cp, KJ/(KG)(K)    6.8752   6.6472
 GAMMAs            1.3157   1.3301
 SON VEL,M/SEC     1750.7   1632.7
 MACH NUMBER        0.000    1.000

 TRANSPORT PROPERTIES (GASES ONLY)
   CONDUCTIVITY IN UNITS OF MILLIWATTS/(CM)(K)

 VISC,MILLIPOISE  0.40510  0.36291

  WITH EQUILIBRIUM REACTIONS

 Cp, KJ/(KG)(K)    6.8752   6.6472
 CONDUCTIVITY      4.6200   4.0548
 PRANDTL NUMBER    0.6028   0.5949

  WITH FROZEN REACTIONS

 Cp, KJ/(KG)(K)    6.8750   6.6472
 CONDUCTIVITY      4.6197   4.0548
 PRANDTL NUMBER    0.6029   0.5949

 PERFORMANCE PARAMETERS

 Ae/At                      1.0000
 CSTAR, M/SEC               2272.8
 CF                         0.7184
 Ivac, M/SEC                2860.2
 Isp, M/SEC                 1632.7


 MOLE FRACTIONS

 *H2              0.81100  0.81100
 H2O              0.18900  0.18900

  * THERMODYNAMIC PROPERTIES FITTED TO 20000.K

 NOTE. WEIGHT FRACTION OF FUEL IN TOTAL FUELS AND OF OXIDANT IN TOTAL OXIDANTS

 WARNING!!  FREEZING IS NOT ALLOWED AT A SUBSONIC PRESSURE RATIO FOR nfz GREATER
 THAN 1. FROZEN PERFORMANCE CALCULATIONS WERE OMITTED (ROCKET)










              THEORETICAL ROCKET PERFORMANCE ASSUMING EQUILIBRIUM

           COMPOSITION DURING EXPANSION FROM INFINITE AREA COMBUSTOR

 Pin =  2939.2 PSIA
 CASE = RS25Jacob______

             REACTANT                    WT FRACTION      ENERGY      TEMP
                                          (SEE NOTE)     KJ/KG-MOL      K  
 FUEL        H2(L)                        1.0000000     -9012.000     20.270
 OXIDANT     O2(L)                        1.0000000    -12979.000     90.170

 O/F=    1.60000  %FUEL= 38.461538  R,EQ.RATIO= 4.960427  PHI,EQ.RATIO= 4.960427

                 CHAMBER   THROAT
 Pinf/P            1.0000   1.8469
 P, BAR            202.65   109.72
 T, K             1492.65  1288.53
 RHO, KG/CU M    8.5584 0 5.3679 0
 H, KJ/KG        -1969.03 -3320.56
 U, KJ/KG        -4336.89 -5364.61
 G, KJ/KG        -45588.5 -40975.0
 S, KJ/(KG)(K)    29.2229  29.2229

 M, (1/n)           5.241    5.241
 (dLV/dLP)t      -1.00000 -1.00000
 (dLV/dLT)p        1.0000   1.0000
 Cp, KJ/(KG)(K)    6.7336   6.5068
 GAMMAs            1.3082   1.3224
 SON VEL,M/SEC     1760.0   1644.1
 MACH NUMBER        0.000    1.000

 TRANSPORT PROPERTIES (GASES ONLY)
   CONDUCTIVITY IN UNITS OF MILLIWATTS/(CM)(K)

 VISC,MILLIPOISE  0.42817  0.38452

  WITH EQUILIBRIUM REACTIONS

 Cp, KJ/(KG)(K)    6.7336   6.5068
 CONDUCTIVITY      4.7753   4.1957
 PRANDTL NUMBER    0.6038   0.5963

  WITH FROZEN REACTIONS

 Cp, KJ/(KG)(K)    6.7331   6.5067
 CONDUCTIVITY      4.7745   4.1957
 PRANDTL NUMBER    0.6038   0.5963

 PERFORMANCE PARAMETERS

 Ae/At                      1.0000
 CSTAR, M/SEC               2296.2
 CF                         0.7160
 Ivac, M/SEC                2887.4
 Isp, M/SEC                 1644.1


 MOLE FRACTIONS

 *H2              0.79840  0.79840
 H2O              0.20160  0.20160

  * THERMODYNAMIC PROPERTIES FITTED TO 20000.K

 NOTE. WEIGHT FRACTION OF FUEL IN TOTAL FUELS AND OF OXIDANT IN TOTAL OXIDANTS

 WARNING!!  FREEZING IS NOT ALLOWED AT A SUBSONIC PRESSURE RATIO FOR nfz GREATER
 THAN 1. FROZEN PERFORMANCE CALCULATIONS WERE OMITTED (ROCKET)










              THEORETICAL ROCKET PERFORMANCE ASSUMING EQUILIBRIUM

           COMPOSITION DURING EXPANSION FROM INFINITE AREA COMBUSTOR

 Pin =  2939.2 PSIA
 CASE = RS25Jacob______

             REACTANT                    WT FRACTION      ENERGY      TEMP
                                          (SEE NOTE)     KJ/KG-MOL      K  
 FUEL        H2(L)                        1.0000000     -9012.000     20.270
 OXIDANT     O2(L)                        1.0000000    -12979.000     90.170

 O/F=    1.70000  %FUEL= 37.037037  R,EQ.RATIO= 4.668637  PHI,EQ.RATIO= 4.668637

                 CHAMBER   THROAT
 Pinf/P            1.0000   1.8424
 P, BAR            202.65   109.99
 T, K             1571.53  1360.92
 RHO, KG/CU M    8.4414 0 5.2908 0
 H, KJ/KG        -1911.13 -3278.02
 U, KJ/KG        -4311.79 -5356.95
 G, KJ/KG        -46967.0 -42295.8
 S, KJ/(KG)(K)    28.6701  28.6701

 M, (1/n)           5.443    5.443
 (dLV/dLP)t      -1.00000 -1.00000
 (dLV/dLT)p        1.0000   1.0000
 Cp, KJ/(KG)(K)    6.6006   6.3773
 GAMMAs            1.3011   1.3150
 SON VEL,M/SEC     1767.4   1653.4
 MACH NUMBER        0.000    1.000

 TRANSPORT PROPERTIES (GASES ONLY)
   CONDUCTIVITY IN UNITS OF MILLIWATTS/(CM)(K)

 VISC,MILLIPOISE  0.45087  0.40584

  WITH EQUILIBRIUM REACTIONS

 Cp, KJ/(KG)(K)    6.6006   6.3773
 CONDUCTIVITY      4.9209   4.3291
 PRANDTL NUMBER    0.6048   0.5978

  WITH FROZEN REACTIONS

 Cp, KJ/(KG)(K)    6.5994   6.3771
 CONDUCTIVITY      4.9191   4.3289
 PRANDTL NUMBER    0.6049   0.5979

 PERFORMANCE PARAMETERS

 Ae/At                     1.00000
 CSTAR, M/SEC               2316.6
 CF                         0.7137
 Ivac, M/SEC                2910.8
 Isp, M/SEC                 1653.4


 MOLE FRACTIONS

 *H2              0.78580  0.78580
 H2O              0.21419  0.21420

  * THERMODYNAMIC PROPERTIES FITTED TO 20000.K

 NOTE. WEIGHT FRACTION OF FUEL IN TOTAL FUELS AND OF OXIDANT IN TOTAL OXIDANTS

 WARNING!!  FREEZING IS NOT ALLOWED AT A SUBSONIC PRESSURE RATIO FOR nfz GREATER
 THAN 1. FROZEN PERFORMANCE CALCULATIONS WERE OMITTED (ROCKET)










              THEORETICAL ROCKET PERFORMANCE ASSUMING EQUILIBRIUM

           COMPOSITION DURING EXPANSION FROM INFINITE AREA COMBUSTOR

 Pin =  2939.2 PSIA
 CASE = RS25Jacob______

             REACTANT                    WT FRACTION      ENERGY      TEMP
                                          (SEE NOTE)     KJ/KG-MOL      K  
 FUEL        H2(L)                        1.0000000     -9012.000     20.270
 OXIDANT     O2(L)                        1.0000000    -12979.000     90.170

 O/F=    1.80000  %FUEL= 35.714286  R,EQ.RATIO= 4.409268  PHI,EQ.RATIO= 4.409268

                 CHAMBER   THROAT
 Pinf/P            1.0000   1.8381
 P, BAR            202.65   110.25
 T, K             1648.62  1431.97
 RHO, KG/CU M    8.3447 0 5.2267 0
 H, KJ/KG        -1857.36 -3236.82
 U, KJ/KG        -4285.85 -5346.17
 G, KJ/KG        -48249.3 -43532.2
 S, KJ/(KG)(K)    28.1398  28.1398

 M, (1/n)           5.644    5.644
 (dLV/dLP)t      -1.00000 -1.00000
 (dLV/dLT)p        1.0000   1.0000
 Cp, KJ/(KG)(K)    6.4750   6.2565
 GAMMAs            1.2945   1.3079
 SON VEL,M/SEC     1773.1   1661.0
 MACH NUMBER        0.000    1.000

 TRANSPORT PROPERTIES (GASES ONLY)
   CONDUCTIVITY IN UNITS OF MILLIWATTS/(CM)(K)

 VISC,MILLIPOISE  0.47322  0.42687

  WITH EQUILIBRIUM REACTIONS

 Cp, KJ/(KG)(K)    6.4750   6.2565
 CONDUCTIVITY      5.0575   4.4549
 PRANDTL NUMBER    0.6058   0.5995

  WITH FROZEN REACTIONS

 Cp, KJ/(KG)(K)    6.4727   6.2562
 CONDUCTIVITY      5.0538   4.4545
 PRANDTL NUMBER    0.6061   0.5995

 PERFORMANCE PARAMETERS

 Ae/At                      1.0000
 CSTAR, M/SEC               2334.3
 CF                         0.7116
 Ivac, M/SEC                2930.9
 Isp, M/SEC                 1661.0


 MOLE FRACTIONS

 *H               0.00001  0.00000
 *H2              0.77320  0.77320
 H2O              0.22679  0.22679

  * THERMODYNAMIC PROPERTIES FITTED TO 20000.K

 NOTE. WEIGHT FRACTION OF FUEL IN TOTAL FUELS AND OF OXIDANT IN TOTAL OXIDANTS

 WARNING!!  FREEZING IS NOT ALLOWED AT A SUBSONIC PRESSURE RATIO FOR nfz GREATER
 THAN 1. FROZEN PERFORMANCE CALCULATIONS WERE OMITTED (ROCKET)










              THEORETICAL ROCKET PERFORMANCE ASSUMING EQUILIBRIUM

           COMPOSITION DURING EXPANSION FROM INFINITE AREA COMBUSTOR

 Pin =  2939.2 PSIA
 CASE = RS25Jacob______

             REACTANT                    WT FRACTION      ENERGY      TEMP
                                          (SEE NOTE)     KJ/KG-MOL      K  
 FUEL        H2(L)                        1.0000000     -9012.000     20.270
 OXIDANT     O2(L)                        1.0000000    -12979.000     90.170

 O/F=    1.90000  %FUEL= 34.482759  R,EQ.RATIO= 4.177201  PHI,EQ.RATIO= 4.177201

                 CHAMBER   THROAT
 Pinf/P            1.0000   1.8340
 P, BAR            202.65   110.49
 T, K             1724.01  1501.71
 RHO, KG/CU M    8.2647 0 5.1734 0
 H, KJ/KG        -1807.30 -3196.93
 U, KJ/KG        -4259.28 -5332.73
 G, KJ/KG        -49444.2 -44691.3
 S, KJ/(KG)(K)    27.6314  27.6314

 M, (1/n)           5.846    5.846
 (dLV/dLP)t      -1.00000 -1.00000
 (dLV/dLT)p        1.0001   1.0000
 Cp, KJ/(KG)(K)    6.3563   6.1431
 GAMMAs            1.2883   1.3013
 SON VEL,M/SEC     1777.3   1667.1
 MACH NUMBER        0.000    1.000

 TRANSPORT PROPERTIES (GASES ONLY)
   CONDUCTIVITY IN UNITS OF MILLIWATTS/(CM)(K)

 VISC,MILLIPOISE  0.49521  0.44761

  WITH EQUILIBRIUM REACTIONS

 Cp, KJ/(KG)(K)    6.3563   6.1431
 CONDUCTIVITY      5.1862   4.5736
 PRANDTL NUMBER    0.6069   0.6012

  WITH FROZEN REACTIONS

 Cp, KJ/(KG)(K)    6.3522   6.1424
 CONDUCTIVITY      5.1791   4.5725
 PRANDTL NUMBER    0.6074   0.6013

 PERFORMANCE PARAMETERS

 Ae/At                      1.0000
 CSTAR, M/SEC               2349.7
 CF                         0.7095
 Ivac, M/SEC                2948.2
 Isp, M/SEC                 1667.1


 MOLE FRACTIONS

 *H               0.00001  0.00000
 *H2              0.76060  0.76060
 H2O              0.23939  0.23939

  * THERMODYNAMIC PROPERTIES FITTED TO 20000.K

 NOTE. WEIGHT FRACTION OF FUEL IN TOTAL FUELS AND OF OXIDANT IN TOTAL OXIDANTS

 WARNING!!  FREEZING IS NOT ALLOWED AT A SUBSONIC PRESSURE RATIO FOR nfz GREATER
 THAN 1. FROZEN PERFORMANCE CALCULATIONS WERE OMITTED (ROCKET)










              THEORETICAL ROCKET PERFORMANCE ASSUMING EQUILIBRIUM

           COMPOSITION DURING EXPANSION FROM INFINITE AREA COMBUSTOR

 Pin =  2939.2 PSIA
 CASE = RS25Jacob______

             REACTANT                    WT FRACTION      ENERGY      TEMP
                                          (SEE NOTE)     KJ/KG-MOL      K  
 FUEL        H2(L)                        1.0000000     -9012.000     20.270
 OXIDANT     O2(L)                        1.0000000    -12979.000     90.170

 O/F=    2.00000  %FUEL= 33.333333  R,EQ.RATIO= 3.968341  PHI,EQ.RATIO= 3.968341

                 CHAMBER   THROAT
 Pinf/P            1.0000   1.8302
 P, BAR            202.65   110.73
 T, K             1797.78  1570.17
 RHO, KG/CU M    8.1989 0 5.1292 0
 H, KJ/KG        -1760.57 -3158.32
 U, KJ/KG        -4232.25 -5317.05
 G, KJ/KG        -50559.7 -45779.3
 S, KJ/(KG)(K)    27.1442  27.1442

 M, (1/n)           6.048    6.048
 (dLV/dLP)t      -1.00001 -1.00000
 (dLV/dLT)p        1.0002   1.0000
 Cp, KJ/(KG)(K)    6.2442   6.0361
 GAMMAs            1.2825   1.2950
 SON VEL,M/SEC     1780.4   1672.0
 MACH NUMBER        0.000    1.000

 TRANSPORT PROPERTIES (GASES ONLY)
   CONDUCTIVITY IN UNITS OF MILLIWATTS/(CM)(K)

 VISC,MILLIPOISE  0.51685  0.46807

  WITH EQUILIBRIUM REACTIONS

 Cp, KJ/(KG)(K)    6.2442   6.0361
 CONDUCTIVITY      5.3080   4.6853
 PRANDTL NUMBER    0.6080   0.6030

  WITH FROZEN REACTIONS

 Cp, KJ/(KG)(K)    6.2372   6.0347
 CONDUCTIVITY      5.2952   4.6831
 PRANDTL NUMBER    0.6088   0.6032

 PERFORMANCE PARAMETERS

 Ae/At                      1.0000
 CSTAR, M/SEC               2363.0
 CF                         0.7076
 Ivac, M/SEC                2963.1
 Isp, M/SEC                 1672.0


 MOLE FRACTIONS

 *H               0.00002  0.00000
 *H2              0.74799  0.74800
 H2O              0.25199  0.25199

  * THERMODYNAMIC PROPERTIES FITTED TO 20000.K

 NOTE. WEIGHT FRACTION OF FUEL IN TOTAL FUELS AND OF OXIDANT IN TOTAL OXIDANTS

 WARNING!!  FREEZING IS NOT ALLOWED AT A SUBSONIC PRESSURE RATIO FOR nfz GREATER
 THAN 1. FROZEN PERFORMANCE CALCULATIONS WERE OMITTED (ROCKET)










              THEORETICAL ROCKET PERFORMANCE ASSUMING EQUILIBRIUM

           COMPOSITION DURING EXPANSION FROM INFINITE AREA COMBUSTOR

 Pin =  2939.2 PSIA
 CASE = RS25Jacob______

             REACTANT                    WT FRACTION      ENERGY      TEMP
                                          (SEE NOTE)     KJ/KG-MOL      K  
 FUEL        H2(L)                        1.0000000     -9012.000     20.270
 OXIDANT     O2(L)                        1.0000000    -12979.000     90.170

 O/F=    2.10000  %FUEL= 32.258065  R,EQ.RATIO= 3.779373  PHI,EQ.RATIO= 3.779373

                 CHAMBER   THROAT
 Pinf/P            1.0000   1.8265
 P, BAR            202.65   110.95
 T, K             1869.97  1637.40
 RHO, KG/CU M    8.1450 0 5.0927 0
 H, KJ/KG        -1716.87 -3120.94
 U, KJ/KG        -4204.89 -5299.48
 G, KJ/KG        -51602.6 -46802.2
 S, KJ/(KG)(K)    26.6773  26.6773

 M, (1/n)           6.249    6.249
 (dLV/dLP)t      -1.00001 -1.00000
 (dLV/dLT)p        1.0003   1.0001
 Cp, KJ/(KG)(K)    6.1385   5.9348
 GAMMAs            1.2769   1.2890
 SON VEL,M/SEC     1782.4   1675.8
 MACH NUMBER        0.000    1.000

 TRANSPORT PROPERTIES (GASES ONLY)
   CONDUCTIVITY IN UNITS OF MILLIWATTS/(CM)(K)

 VISC,MILLIPOISE  0.53814  0.48824

  WITH EQUILIBRIUM REACTIONS

 Cp, KJ/(KG)(K)    6.1385   5.9348
 CONDUCTIVITY      5.4243   4.7908
 PRANDTL NUMBER    0.6090   0.6048

  WITH FROZEN REACTIONS

 Cp, KJ/(KG)(K)    6.1272   5.9324
 CONDUCTIVITY      5.4027   4.7866
 PRANDTL NUMBER    0.6103   0.6051

 PERFORMANCE PARAMETERS

 Ae/At                      1.0000
 CSTAR, M/SEC               2374.6
 CF                         0.7057
 Ivac, M/SEC                2975.8
 Isp, M/SEC                 1675.8


 MOLE FRACTIONS

 *H               0.00004  0.00001
 *H2              0.73537  0.73540
 H2O              0.26459  0.26459

  * THERMODYNAMIC PROPERTIES FITTED TO 20000.K

 NOTE. WEIGHT FRACTION OF FUEL IN TOTAL FUELS AND OF OXIDANT IN TOTAL OXIDANTS

 WARNING!!  FREEZING IS NOT ALLOWED AT A SUBSONIC PRESSURE RATIO FOR nfz GREATER
 THAN 1. FROZEN PERFORMANCE CALCULATIONS WERE OMITTED (ROCKET)










              THEORETICAL ROCKET PERFORMANCE ASSUMING EQUILIBRIUM

           COMPOSITION DURING EXPANSION FROM INFINITE AREA COMBUSTOR

 Pin =  2939.2 PSIA
 CASE = RS25Jacob______

             REACTANT                    WT FRACTION      ENERGY      TEMP
                                          (SEE NOTE)     KJ/KG-MOL      K  
 FUEL        H2(L)                        1.0000000     -9012.000     20.270
 OXIDANT     O2(L)                        1.0000000    -12979.000     90.170

 O/F=    2.20000  %FUEL= 31.250000  R,EQ.RATIO= 3.607583  PHI,EQ.RATIO= 3.607583

                 CHAMBER   THROAT
 Pinf/P            1.0000   1.8231
 P, BAR            202.65   111.16
 T, K             1940.66  1703.43
 RHO, KG/CU M    8.1014 0 5.0628 0
 H, KJ/KG        -1675.89 -3084.73
 U, KJ/KG        -4177.31 -5280.30
 G, KJ/KG        -52579.1 -47765.2
 S, KJ/(KG)(K)    26.2298  26.2298

 M, (1/n)           6.451    6.451
 (dLV/dLP)t      -1.00002 -1.00000
 (dLV/dLT)p        1.0005   1.0001
 Cp, KJ/(KG)(K)    6.0392   5.8389
 GAMMAs            1.2716   1.2833
 SON VEL,M/SEC     1783.5   1678.6
 MACH NUMBER        0.000    1.000

 TRANSPORT PROPERTIES (GASES ONLY)
   CONDUCTIVITY IN UNITS OF MILLIWATTS/(CM)(K)

 VISC,MILLIPOISE  0.55908  0.50814

  WITH EQUILIBRIUM REACTIONS

 Cp, KJ/(KG)(K)    6.0392   5.8389
 CONDUCTIVITY      5.5365   4.8907
 PRANDTL NUMBER    0.6098   0.6067

  WITH FROZEN REACTIONS

 Cp, KJ/(KG)(K)    6.0218   5.8347
 CONDUCTIVITY      5.5019   4.8831
 PRANDTL NUMBER    0.6119   0.6072

 PERFORMANCE PARAMETERS

 Ae/At                      1.0000
 CSTAR, M/SEC               2384.6
 CF                         0.7039
 Ivac, M/SEC                2986.6
 Isp, M/SEC                 1678.6


 MOLE FRACTIONS

 *H               0.00006  0.00001
 *H2              0.72275  0.72280
 H2O              0.27718  0.27719

  * THERMODYNAMIC PROPERTIES FITTED TO 20000.K

 NOTE. WEIGHT FRACTION OF FUEL IN TOTAL FUELS AND OF OXIDANT IN TOTAL OXIDANTS

 WARNING!!  FREEZING IS NOT ALLOWED AT A SUBSONIC PRESSURE RATIO FOR nfz GREATER
 THAN 1. FROZEN PERFORMANCE CALCULATIONS WERE OMITTED (ROCKET)










              THEORETICAL ROCKET PERFORMANCE ASSUMING EQUILIBRIUM

           COMPOSITION DURING EXPANSION FROM INFINITE AREA COMBUSTOR

 Pin =  2939.2 PSIA
 CASE = RS25Jacob______

             REACTANT                    WT FRACTION      ENERGY      TEMP
                                          (SEE NOTE)     KJ/KG-MOL      K  
 FUEL        H2(L)                        1.0000000     -9012.000     20.270
 OXIDANT     O2(L)                        1.0000000    -12979.000     90.170

 O/F=    2.30000  %FUEL= 30.303030  R,EQ.RATIO= 3.450732  PHI,EQ.RATIO= 3.450732

                 CHAMBER   THROAT
 Pinf/P            1.0000   1.8198
 P, BAR            202.65   111.36
 T, K             2009.89  1768.29
 RHO, KG/CU M    8.0667 0 5.0386 0
 H, KJ/KG        -1637.40 -3049.63
 U, KJ/KG        -4149.59 -5259.76
 G, KJ/KG        -53494.2 -48673.0
 S, KJ/(KG)(K)    25.8008  25.8008

 M, (1/n)           6.652    6.652
 (dLV/dLP)t      -1.00003 -1.00001
 (dLV/dLT)p        1.0007   1.0002
 Cp, KJ/(KG)(K)    5.9463   5.7481
 GAMMAs            1.2666   1.2780
 SON VEL,M/SEC     1783.8   1680.6
 MACH NUMBER        0.000    1.000

 TRANSPORT PROPERTIES (GASES ONLY)
   CONDUCTIVITY IN UNITS OF MILLIWATTS/(CM)(K)

 VISC,MILLIPOISE  0.57968  0.52774

  WITH EQUILIBRIUM REACTIONS

 Cp, KJ/(KG)(K)    5.9463   5.7481
 CONDUCTIVITY      5.6463   4.9857
 PRANDTL NUMBER    0.6105   0.6084

  WITH FROZEN REACTIONS

 Cp, KJ/(KG)(K)    5.9207   5.7413
 CONDUCTIVITY      5.5932   4.9729
 PRANDTL NUMBER    0.6136   0.6093

 PERFORMANCE PARAMETERS

 Ae/At                      1.0000
 CSTAR, M/SEC               2393.1
 CF                         0.7023
 Ivac, M/SEC                2995.7
 Isp, M/SEC                 1680.6


 MOLE FRACTIONS

 *H               0.00010  0.00002
 *H2              0.71012  0.71019
 H2O              0.28977  0.28979

  * THERMODYNAMIC PROPERTIES FITTED TO 20000.K

 NOTE. WEIGHT FRACTION OF FUEL IN TOTAL FUELS AND OF OXIDANT IN TOTAL OXIDANTS

 WARNING!!  FREEZING IS NOT ALLOWED AT A SUBSONIC PRESSURE RATIO FOR nfz GREATER
 THAN 1. FROZEN PERFORMANCE CALCULATIONS WERE OMITTED (ROCKET)










              THEORETICAL ROCKET PERFORMANCE ASSUMING EQUILIBRIUM

           COMPOSITION DURING EXPANSION FROM INFINITE AREA COMBUSTOR

 Pin =  2939.2 PSIA
 CASE = RS25Jacob______

             REACTANT                    WT FRACTION      ENERGY      TEMP
                                          (SEE NOTE)     KJ/KG-MOL      K  
 FUEL        H2(L)                        1.0000000     -9012.000     20.270
 OXIDANT     O2(L)                        1.0000000    -12979.000     90.170

 O/F=    2.40000  %FUEL= 29.411765  R,EQ.RATIO= 3.306951  PHI,EQ.RATIO= 3.306951

                 CHAMBER   THROAT
 Pinf/P            1.0000   1.8167
 P, BAR            202.65   111.55
 T, K             2077.69  1832.03
 RHO, KG/CU M    8.0396 0 5.0193 0
 H, KJ/KG        -1601.17 -3015.59
 U, KJ/KG        -4121.80 -5238.05
 G, KJ/KG        -54352.6 -49529.8
 S, KJ/(KG)(K)    25.3895  25.3895

 M, (1/n)           6.853    6.854
 (dLV/dLP)t      -1.00004 -1.00001
 (dLV/dLT)p        1.0011   1.0003
 Cp, KJ/(KG)(K)    5.8600   5.6622
 GAMMAs            1.2618   1.2728
 SON VEL,M/SEC     1783.4   1681.9
 MACH NUMBER        0.000    1.000

 TRANSPORT PROPERTIES (GASES ONLY)
   CONDUCTIVITY IN UNITS OF MILLIWATTS/(CM)(K)

 VISC,MILLIPOISE  0.59992  0.54707

  WITH EQUILIBRIUM REACTIONS

 Cp, KJ/(KG)(K)    5.8600   5.6622
 CONDUCTIVITY      5.7553   5.0770
 PRANDTL NUMBER    0.6108   0.6101

  WITH FROZEN REACTIONS

 Cp, KJ/(KG)(K)    5.8237   5.6518
 CONDUCTIVITY      5.6769   5.0563
 PRANDTL NUMBER    0.6154   0.6115

 PERFORMANCE PARAMETERS

 Ae/At                      1.0000
 CSTAR, M/SEC               2400.5
 CF                         0.7007
 Ivac, M/SEC                3003.3
 Isp, M/SEC                 1681.9


 MOLE FRACTIONS

 *H               0.00016  0.00004
 *H2              0.69747  0.69758
 H2O              0.30236  0.30239
 *OH              0.00001  0.00000

  * THERMODYNAMIC PROPERTIES FITTED TO 20000.K

 NOTE. WEIGHT FRACTION OF FUEL IN TOTAL FUELS AND OF OXIDANT IN TOTAL OXIDANTS

 WARNING!!  FREEZING IS NOT ALLOWED AT A SUBSONIC PRESSURE RATIO FOR nfz GREATER
 THAN 1. FROZEN PERFORMANCE CALCULATIONS WERE OMITTED (ROCKET)










              THEORETICAL ROCKET PERFORMANCE ASSUMING EQUILIBRIUM

           COMPOSITION DURING EXPANSION FROM INFINITE AREA COMBUSTOR

 Pin =  2939.2 PSIA
 CASE = RS25Jacob______

             REACTANT                    WT FRACTION      ENERGY      TEMP
                                          (SEE NOTE)     KJ/KG-MOL      K  
 FUEL        H2(L)                        1.0000000     -9012.000     20.270
 OXIDANT     O2(L)                        1.0000000    -12979.000     90.170

 O/F=    2.50000  %FUEL= 28.571429  R,EQ.RATIO= 3.174673  PHI,EQ.RATIO= 3.174673

                 CHAMBER   THROAT
 Pinf/P            1.0000   1.8137
 P, BAR            202.65   111.74
 T, K             2144.09  1894.67
 RHO, KG/CU M    8.0194 0 5.0043 0
 H, KJ/KG        -1567.01 -2982.54
 U, KJ/KG        -4093.99 -5215.34
 G, KJ/KG        -55158.1 -50339.4
 S, KJ/(KG)(K)    24.9948  24.9948

 M, (1/n)           7.055    7.055
 (dLV/dLP)t      -1.00006 -1.00002
 (dLV/dLT)p        1.0016   1.0005
 Cp, KJ/(KG)(K)    5.7805   5.5813
 GAMMAs            1.2571   1.2679
 SON VEL,M/SEC     1782.3   1682.6
 MACH NUMBER        0.000    1.000

 TRANSPORT PROPERTIES (GASES ONLY)
   CONDUCTIVITY IN UNITS OF MILLIWATTS/(CM)(K)

 VISC,MILLIPOISE  0.61981  0.56611

  WITH EQUILIBRIUM REACTIONS

 Cp, KJ/(KG)(K)    5.7805   5.5813
 CONDUCTIVITY      5.8654   5.1655
 PRANDTL NUMBER    0.6108   0.6117

  WITH FROZEN REACTIONS

 Cp, KJ/(KG)(K)    5.7303   5.5658
 CONDUCTIVITY      5.7534   5.1336
 PRANDTL NUMBER    0.6173   0.6138

 PERFORMANCE PARAMETERS

 Ae/At                      1.0000
 CSTAR, M/SEC               2406.8
 CF                         0.6991
 Ivac, M/SEC                3009.6
 Isp, M/SEC                 1682.6


 MOLE FRACTIONS

 *H               0.00024  0.00006
 *H2              0.68481  0.68496
 H2O              0.31494  0.31498
 *OH              0.00002  0.00000

  * THERMODYNAMIC PROPERTIES FITTED TO 20000.K

 NOTE. WEIGHT FRACTION OF FUEL IN TOTAL FUELS AND OF OXIDANT IN TOTAL OXIDANTS

 WARNING!!  FREEZING IS NOT ALLOWED AT A SUBSONIC PRESSURE RATIO FOR nfz GREATER
 THAN 1. FROZEN PERFORMANCE CALCULATIONS WERE OMITTED (ROCKET)










              THEORETICAL ROCKET PERFORMANCE ASSUMING EQUILIBRIUM

           COMPOSITION DURING EXPANSION FROM INFINITE AREA COMBUSTOR

 Pin =  2939.2 PSIA
 CASE = RS25Jacob______

             REACTANT                    WT FRACTION      ENERGY      TEMP
                                          (SEE NOTE)     KJ/KG-MOL      K  
 FUEL        H2(L)                        1.0000000     -9012.000     20.270
 OXIDANT     O2(L)                        1.0000000    -12979.000     90.170

 O/F=    2.60000  %FUEL= 27.777778  R,EQ.RATIO= 3.052570  PHI,EQ.RATIO= 3.052570

                 CHAMBER   THROAT
 Pinf/P            1.0000   1.8108
 P, BAR            202.65   111.91
 T, K             2209.12  1956.23
 RHO, KG/CU M    8.0053 0 4.9931 0
 H, KJ/KG        -1534.75 -2950.42
 U, KJ/KG        -4066.19 -5191.77
 G, KJ/KG        -55914.2 -51104.9
 S, KJ/(KG)(K)    24.6159  24.6159

 M, (1/n)           7.256    7.257
 (dLV/dLP)t      -1.00009 -1.00002
 (dLV/dLT)p        1.0023   1.0007
 Cp, KJ/(KG)(K)    5.7080   5.5055
 GAMMAs            1.2525   1.2632
 SON VEL,M/SEC     1780.6   1682.7
 MACH NUMBER        0.000    1.000

 TRANSPORT PROPERTIES (GASES ONLY)
   CONDUCTIVITY IN UNITS OF MILLIWATTS/(CM)(K)

 VISC,MILLIPOISE  0.63936  0.58487

  WITH EQUILIBRIUM REACTIONS

 Cp, KJ/(KG)(K)    5.7080   5.5055
 CONDUCTIVITY      5.9782   5.2526
 PRANDTL NUMBER    0.6105   0.6130

  WITH FROZEN REACTIONS

 Cp, KJ/(KG)(K)    5.6404   5.4831
 CONDUCTIVITY      5.8230   5.2049
 PRANDTL NUMBER    0.6193   0.6161

 PERFORMANCE PARAMETERS

 Ae/At                      1.0000
 CSTAR, M/SEC               2412.0
 CF                         0.6976
 Ivac, M/SEC                3014.7
 Isp, M/SEC                 1682.7


 MOLE FRACTIONS

 *H               0.00034  0.00009
 *H2              0.67213  0.67233
 H2O              0.32751  0.32757
 *OH              0.00003  0.00000

  * THERMODYNAMIC PROPERTIES FITTED TO 20000.K

 NOTE. WEIGHT FRACTION OF FUEL IN TOTAL FUELS AND OF OXIDANT IN TOTAL OXIDANTS

 WARNING!!  FREEZING IS NOT ALLOWED AT A SUBSONIC PRESSURE RATIO FOR nfz GREATER
 THAN 1. FROZEN PERFORMANCE CALCULATIONS WERE OMITTED (ROCKET)










              THEORETICAL ROCKET PERFORMANCE ASSUMING EQUILIBRIUM

           COMPOSITION DURING EXPANSION FROM INFINITE AREA COMBUSTOR

 Pin =  2939.2 PSIA
 CASE = RS25Jacob______

             REACTANT                    WT FRACTION      ENERGY      TEMP
                                          (SEE NOTE)     KJ/KG-MOL      K  
 FUEL        H2(L)                        1.0000000     -9012.000     20.270
 OXIDANT     O2(L)                        1.0000000    -12979.000     90.170

 O/F=    2.70000  %FUEL= 27.027027  R,EQ.RATIO= 2.939512  PHI,EQ.RATIO= 2.939512

                 CHAMBER   THROAT
 Pinf/P            1.0000   1.8080
 P, BAR            202.65   112.09
 T, K             2272.78  2016.75
 RHO, KG/CU M    7.9966 0 4.9853 0
 H, KJ/KG        -1504.23 -2919.16
 U, KJ/KG        -4038.43 -5167.46
 G, KJ/KG        -56623.7 -51829.3
 S, KJ/(KG)(K)    24.2520  24.2520

 M, (1/n)           7.457    7.458
 (dLV/dLP)t      -1.00013 -1.00004
 (dLV/dLT)p        1.0032   1.0010
 Cp, KJ/(KG)(K)    5.6425   5.4347
 GAMMAs            1.2481   1.2587
 SON VEL,M/SEC     1778.4   1682.2
 MACH NUMBER        0.000    1.000

 TRANSPORT PROPERTIES (GASES ONLY)
   CONDUCTIVITY IN UNITS OF MILLIWATTS/(CM)(K)

 VISC,MILLIPOISE  0.65854  0.60334

  WITH EQUILIBRIUM REACTIONS

 Cp, KJ/(KG)(K)    5.6425   5.4347
 CONDUCTIVITY      6.0956   5.3394
 PRANDTL NUMBER    0.6096   0.6141

  WITH FROZEN REACTIONS

 Cp, KJ/(KG)(K)    5.5539   5.4034
 CONDUCTIVITY      5.8860   5.2705
 PRANDTL NUMBER    0.6214   0.6185

 PERFORMANCE PARAMETERS

 Ae/At                      1.0000
 CSTAR, M/SEC               2416.4
 CF                         0.6962
 Ivac, M/SEC                3018.7
 Isp, M/SEC                 1682.2


 MOLE FRACTIONS

 *H               0.00048  0.00014
 *H2              0.65942  0.65969
 H2O              0.34006  0.34016
 *OH              0.00004  0.00001

  * THERMODYNAMIC PROPERTIES FITTED TO 20000.K

 NOTE. WEIGHT FRACTION OF FUEL IN TOTAL FUELS AND OF OXIDANT IN TOTAL OXIDANTS

 WARNING!!  FREEZING IS NOT ALLOWED AT A SUBSONIC PRESSURE RATIO FOR nfz GREATER
 THAN 1. FROZEN PERFORMANCE CALCULATIONS WERE OMITTED (ROCKET)










              THEORETICAL ROCKET PERFORMANCE ASSUMING EQUILIBRIUM

           COMPOSITION DURING EXPANSION FROM INFINITE AREA COMBUSTOR

 Pin =  2939.2 PSIA
 CASE = RS25Jacob______

             REACTANT                    WT FRACTION      ENERGY      TEMP
                                          (SEE NOTE)     KJ/KG-MOL      K  
 FUEL        H2(L)                        1.0000000     -9012.000     20.270
 OXIDANT     O2(L)                        1.0000000    -12979.000     90.170

 O/F=    2.80000  %FUEL= 26.315789  R,EQ.RATIO= 2.834530  PHI,EQ.RATIO= 2.834530

                 CHAMBER   THROAT
 Pinf/P            1.0000   1.8053
 P, BAR            202.65   112.25
 T, K             2335.09  2076.22
 RHO, KG/CU M    7.9928 0 4.9807 0
 H, KJ/KG        -1475.32 -2888.71
 U, KJ/KG        -4010.73 -5142.48
 G, KJ/KG        -57289.1 -52515.0
 S, KJ/(KG)(K)    23.9022  23.9022

 M, (1/n)           7.658    7.660
 (dLV/dLP)t      -1.00018 -1.00005
 (dLV/dLT)p        1.0043   1.0015
 Cp, KJ/(KG)(K)    5.5844   5.3693
 GAMMAs            1.2437   1.2542
 SON VEL,M/SEC     1775.7   1681.3
 MACH NUMBER        0.000    1.000

 TRANSPORT PROPERTIES (GASES ONLY)
   CONDUCTIVITY IN UNITS OF MILLIWATTS/(CM)(K)

 VISC,MILLIPOISE  0.67737  0.62152

  WITH EQUILIBRIUM REACTIONS

 Cp, KJ/(KG)(K)    5.5844   5.3693
 CONDUCTIVITY      6.2191   5.4274
 PRANDTL NUMBER    0.6082   0.6149

  WITH FROZEN REACTIONS

 Cp, KJ/(KG)(K)    5.4705   5.3266
 CONDUCTIVITY      5.9427   5.3308
 PRANDTL NUMBER    0.6235   0.6210

 PERFORMANCE PARAMETERS

 Ae/At                      1.0000
 CSTAR, M/SEC               2420.0
 CF                         0.6948
 Ivac, M/SEC                3021.8
 Isp, M/SEC                 1681.3


 MOLE FRACTIONS

 *H               0.00066  0.00020
 *H2              0.64668  0.64704
 H2O              0.35260  0.35274
 *OH              0.00007  0.00001

  * THERMODYNAMIC PROPERTIES FITTED TO 20000.K

 NOTE. WEIGHT FRACTION OF FUEL IN TOTAL FUELS AND OF OXIDANT IN TOTAL OXIDANTS

 WARNING!!  FREEZING IS NOT ALLOWED AT A SUBSONIC PRESSURE RATIO FOR nfz GREATER
 THAN 1. FROZEN PERFORMANCE CALCULATIONS WERE OMITTED (ROCKET)





              THEORETICAL ROCKET PERFORMANCE ASSUMING EQUILIBRIUM

           COMPOSITION DURING EXPANSION FROM INFINITE AREA COMBUSTOR

 Pin =  2939.2 PSIA
 CASE = RS25Jacob______

             REACTANT                    WT FRACTION      ENERGY      TEMP
                                          (SEE NOTE)     KJ/KG-MOL      K  
 FUEL        H2(L)                        1.0000000     -9012.000     20.270
 OXIDANT     O2(L)                        1.0000000    -12979.000     90.170

 O/F=    2.90000  %FUEL= 25.641026  R,EQ.RATIO= 2.736787  PHI,EQ.RATIO= 2.736787

                 CHAMBER   THROAT
 Pinf/P            1.0000   1.8027
 P, BAR            202.65   112.42
 T, K             2396.04  2134.67
 RHO, KG/CU M    7.9934 0 4.9788 0
 H, KJ/KG        -1447.89 -2859.01
 U, KJ/KG        -3983.10 -5116.92
 G, KJ/KG        -57912.6 -53164.4
 S, KJ/(KG)(K)    23.5659  23.5659

 M, (1/n)           7.858    7.861
 (dLV/dLP)t      -1.00024 -1.00008
 (dLV/dLT)p        1.0057   1.0020
 Cp, KJ/(KG)(K)    5.5337   5.3093
 GAMMAs            1.2394   1.2499
 SON VEL,M/SEC     1772.6   1680.0
 MACH NUMBER        0.000    1.000

 TRANSPORT PROPERTIES (GASES ONLY)
   CONDUCTIVITY IN UNITS OF MILLIWATTS/(CM)(K)

 VISC,MILLIPOISE  0.69583  0.63942

  WITH EQUILIBRIUM REACTIONS

 Cp, KJ/(KG)(K)    5.5337   5.3093
 CONDUCTIVITY      6.3503   5.5180
 PRANDTL NUMBER    0.6064   0.6152

  WITH FROZEN REACTIONS

 Cp, KJ/(KG)(K)    5.3900   5.2525
 CONDUCTIVITY      5.9933   5.3858
 PRANDTL NUMBER    0.6258   0.6236

 PERFORMANCE PARAMETERS

 Ae/At                      1.0000
 CSTAR, M/SEC               2422.9
 CF                         0.6934
 Ivac, M/SEC                3024.0
 Isp, M/SEC                 1680.0


 MOLE FRACTIONS

 *H               0.00087  0.00029
 *H2              0.63391  0.63438
 H2O              0.36511  0.36531
 *OH              0.00010  0.00002

  * THERMODYNAMIC PROPERTIES FITTED TO 20000.K

 NOTE. WEIGHT FRACTION OF FUEL IN TOTAL FUELS AND OF OXIDANT IN TOTAL OXIDANTS

 WARNING!!  FREEZING IS NOT ALLOWED AT A SUBSONIC PRESSURE RATIO FOR nfz GREATER
 THAN 1. FROZEN PERFORMANCE CALCULATIONS WERE OMITTED (ROCKET)










              THEORETICAL ROCKET PERFORMANCE ASSUMING EQUILIBRIUM

           COMPOSITION DURING EXPANSION FROM INFINITE AREA COMBUSTOR

 Pin =  2939.2 PSIA
 CASE = RS25Jacob______

             REACTANT                    WT FRACTION      ENERGY      TEMP
                                          (SEE NOTE)     KJ/KG-MOL      K  
 FUEL        H2(L)                        1.0000000     -9012.000     20.270
 OXIDANT     O2(L)                        1.0000000    -12979.000     90.170

 O/F=    3.00000  %FUEL= 25.000000  R,EQ.RATIO= 2.645561  PHI,EQ.RATIO= 2.645561

                 CHAMBER   THROAT
 Pinf/P            1.0000   1.8001
 P, BAR            202.65   112.58
 T, K             2455.63  2192.10
 RHO, KG/CU M    7.9982 0 4.9794 0
 H, KJ/KG        -1421.83 -2830.01
 U, KJ/KG        -3955.54 -5090.84
 G, KJ/KG        -58496.1 -53779.3
 S, KJ/(KG)(K)    23.2422  23.2422

 M, (1/n)           8.058    8.062
 (dLV/dLP)t      -1.00032 -1.00011
 (dLV/dLT)p        1.0075   1.0028
 Cp, KJ/(KG)(K)    5.4905   5.2550
 GAMMAs            1.2352   1.2457
 SON VEL,M/SEC     1769.1   1678.2
 MACH NUMBER        0.000    1.000

 TRANSPORT PROPERTIES (GASES ONLY)
   CONDUCTIVITY IN UNITS OF MILLIWATTS/(CM)(K)

 VISC,MILLIPOISE  0.71393  0.65702

  WITH EQUILIBRIUM REACTIONS

 Cp, KJ/(KG)(K)    5.4905   5.2550
 CONDUCTIVITY      6.4904   5.6125
 PRANDTL NUMBER    0.6039   0.6152

  WITH FROZEN REACTIONS

 Cp, KJ/(KG)(K)    5.3122   5.1810
 CONDUCTIVITY      6.0383   5.4358
 PRANDTL NUMBER    0.6281   0.6262

 PERFORMANCE PARAMETERS

 Ae/At                      1.0000
 CSTAR, M/SEC               2425.1
 CF                         0.6920
 Ivac, M/SEC                3025.4
 Isp, M/SEC                 1678.2


 MOLE FRACTIONS

 *H               0.00114  0.00040
 *H2              0.62111  0.62169
 H2O              0.37760  0.37787
 *OH              0.00015  0.00004

  * THERMODYNAMIC PROPERTIES FITTED TO 20000.K

 NOTE. WEIGHT FRACTION OF FUEL IN TOTAL FUELS AND OF OXIDANT IN TOTAL OXIDANTS

 WARNING!!  FREEZING IS NOT ALLOWED AT A SUBSONIC PRESSURE RATIO FOR nfz GREATER
 THAN 1. FROZEN PERFORMANCE CALCULATIONS WERE OMITTED (ROCKET)










              THEORETICAL ROCKET PERFORMANCE ASSUMING EQUILIBRIUM

           COMPOSITION DURING EXPANSION FROM INFINITE AREA COMBUSTOR

 Pin =  2939.2 PSIA
 CASE = RS25Jacob______

             REACTANT                    WT FRACTION      ENERGY      TEMP
                                          (SEE NOTE)     KJ/KG-MOL      K  
 FUEL        H2(L)                        1.0000000     -9012.000     20.270
 OXIDANT     O2(L)                        1.0000000    -12979.000     90.170

 O/F=    3.10000  %FUEL= 24.390244  R,EQ.RATIO= 2.560220  PHI,EQ.RATIO= 2.560220

                 CHAMBER   THROAT
 Pinf/P            1.0000   1.7976
 P, BAR            202.65   112.73
 T, K             2513.86  2248.51
 RHO, KG/CU M    8.0067 0 4.9824 0
 H, KJ/KG        -1397.05 -2801.66
 U, KJ/KG        -3928.06 -5064.29
 G, KJ/KG        -59041.3 -54361.2
 S, KJ/(KG)(K)    22.9306  22.9306

 M, (1/n)           8.258    8.263
 (dLV/dLP)t      -1.00042 -1.00015
 (dLV/dLT)p        1.0095   1.0037
 Cp, KJ/(KG)(K)    5.4550   5.2065
 GAMMAs            1.2310   1.2416
 SON VEL,M/SEC     1765.2   1676.1
 MACH NUMBER        0.000    1.000

 TRANSPORT PROPERTIES (GASES ONLY)
   CONDUCTIVITY IN UNITS OF MILLIWATTS/(CM)(K)

 VISC,MILLIPOISE  0.73166  0.67433

  WITH EQUILIBRIUM REACTIONS

 Cp, KJ/(KG)(K)    5.4550   5.2065
 CONDUCTIVITY      6.6405   5.7123
 PRANDTL NUMBER    0.6010   0.6146

  WITH FROZEN REACTIONS

 Cp, KJ/(KG)(K)    5.2372   5.1118
 CONDUCTIVITY      6.0777   5.4810
 PRANDTL NUMBER    0.6305   0.6289

 PERFORMANCE PARAMETERS

 Ae/At                      1.0000
 CSTAR, M/SEC               2426.7
 CF                         0.6907
 Ivac, M/SEC                3026.0
 Isp, M/SEC                 1676.1


 MOLE FRACTIONS

 *H               0.00147  0.00054
 *H2              0.60827  0.60898
 H2O              0.39004  0.39042
 *OH              0.00022  0.00006

  * THERMODYNAMIC PROPERTIES FITTED TO 20000.K

 NOTE. WEIGHT FRACTION OF FUEL IN TOTAL FUELS AND OF OXIDANT IN TOTAL OXIDANTS

 WARNING!!  FREEZING IS NOT ALLOWED AT A SUBSONIC PRESSURE RATIO FOR nfz GREATER
 THAN 1. FROZEN PERFORMANCE CALCULATIONS WERE OMITTED (ROCKET)










              THEORETICAL ROCKET PERFORMANCE ASSUMING EQUILIBRIUM

           COMPOSITION DURING EXPANSION FROM INFINITE AREA COMBUSTOR

 Pin =  2939.2 PSIA
 CASE = RS25Jacob______

             REACTANT                    WT FRACTION      ENERGY      TEMP
                                          (SEE NOTE)     KJ/KG-MOL      K  
 FUEL        H2(L)                        1.0000000     -9012.000     20.270
 OXIDANT     O2(L)                        1.0000000    -12979.000     90.170

 O/F=    3.20000  %FUEL= 23.809524  R,EQ.RATIO= 2.480213  PHI,EQ.RATIO= 2.480213

                 CHAMBER   THROAT
 Pinf/P            1.0000   1.7951
 P, BAR            202.65   112.89
 T, K             2570.71  2303.89
 RHO, KG/CU M    8.0187 0 4.9876 0
 H, KJ/KG        -1373.44 -2773.92
 U, KJ/KG        -3900.67 -5037.31
 G, KJ/KG        -59549.5 -54911.7
 S, KJ/(KG)(K)    22.6303  22.6303

 M, (1/n)           8.458    8.463
 (dLV/dLP)t      -1.00054 -1.00020
 (dLV/dLT)p        1.0120   1.0049
 Cp, KJ/(KG)(K)    5.4271   5.1641
 GAMMAs            1.2269   1.2375
 SON VEL,M/SEC     1760.9   1673.6
 MACH NUMBER        0.000    1.000

 TRANSPORT PROPERTIES (GASES ONLY)
   CONDUCTIVITY IN UNITS OF MILLIWATTS/(CM)(K)

 VISC,MILLIPOISE  0.74901  0.69134

  WITH EQUILIBRIUM REACTIONS

 Cp, KJ/(KG)(K)    5.4271   5.1641
 CONDUCTIVITY      6.8015   5.8188
 PRANDTL NUMBER    0.5977   0.6136

  WITH FROZEN REACTIONS

 Cp, KJ/(KG)(K)    5.1646   5.0449
 CONDUCTIVITY      6.1119   5.5217
 PRANDTL NUMBER    0.6329   0.6316

 PERFORMANCE PARAMETERS

 Ae/At                      1.0000
 CSTAR, M/SEC               2427.7
 CF                         0.6894
 Ivac, M/SEC                3026.0
 Isp, M/SEC                 1673.6


 MOLE FRACTIONS

 *H               0.00185  0.00072
 *H2              0.59540  0.59625
 H2O              0.40245  0.40294
 *OH              0.00031  0.00009

  * THERMODYNAMIC PROPERTIES FITTED TO 20000.K

 NOTE. WEIGHT FRACTION OF FUEL IN TOTAL FUELS AND OF OXIDANT IN TOTAL OXIDANTS

 WARNING!!  FREEZING IS NOT ALLOWED AT A SUBSONIC PRESSURE RATIO FOR nfz GREATER
 THAN 1. FROZEN PERFORMANCE CALCULATIONS WERE OMITTED (ROCKET)










              THEORETICAL ROCKET PERFORMANCE ASSUMING EQUILIBRIUM

           COMPOSITION DURING EXPANSION FROM INFINITE AREA COMBUSTOR

 Pin =  2939.2 PSIA
 CASE = RS25Jacob______

             REACTANT                    WT FRACTION      ENERGY      TEMP
                                          (SEE NOTE)     KJ/KG-MOL      K  
 FUEL        H2(L)                        1.0000000     -9012.000     20.270
 OXIDANT     O2(L)                        1.0000000    -12979.000     90.170

 O/F=    3.30000  %FUEL= 23.255814  R,EQ.RATIO= 2.405055  PHI,EQ.RATIO= 2.405055

                 CHAMBER   THROAT
 Pinf/P            1.0000   1.7927
 P, BAR            202.65   113.04
 T, K             2626.18  2358.24
 RHO, KG/CU M    8.0339 0 4.9949 0
 H, KJ/KG        -1350.93 -2746.73
 U, KJ/KG        -3873.36 -5009.93
 G, KJ/KG        -60022.2 -55431.9
 S, KJ/(KG)(K)    22.3409  22.3409

 M, (1/n)           8.657    8.664
 (dLV/dLP)t      -1.00068 -1.00027
 (dLV/dLT)p        1.0148   1.0064
 Cp, KJ/(KG)(K)    5.4068   5.1279
 GAMMAs            1.2229   1.2335
 SON VEL,M/SEC     1756.3   1670.8
 MACH NUMBER        0.000    1.000

 TRANSPORT PROPERTIES (GASES ONLY)
   CONDUCTIVITY IN UNITS OF MILLIWATTS/(CM)(K)

 VISC,MILLIPOISE  0.76599  0.70805

  WITH EQUILIBRIUM REACTIONS

 Cp, KJ/(KG)(K)    5.4068   5.1279
 CONDUCTIVITY      6.9740   5.9331
 PRANDTL NUMBER    0.5939   0.6120

  WITH FROZEN REACTIONS

 Cp, KJ/(KG)(K)    5.0944   4.9801
 CONDUCTIVITY      6.1410   5.5579
 PRANDTL NUMBER    0.6354   0.6344

 PERFORMANCE PARAMETERS

 Ae/At                      1.0000
 CSTAR, M/SEC               2428.3
 CF                         0.6881
 Ivac, M/SEC                3025.4
 Isp, M/SEC                 1670.8


 MOLE FRACTIONS

 *H               0.00229  0.00093
 *H2              0.58248  0.58350
 H2O              0.41480  0.41544
 *OH              0.00043  0.00013

  * THERMODYNAMIC PROPERTIES FITTED TO 20000.K

 NOTE. WEIGHT FRACTION OF FUEL IN TOTAL FUELS AND OF OXIDANT IN TOTAL OXIDANTS

 WARNING!!  FREEZING IS NOT ALLOWED AT A SUBSONIC PRESSURE RATIO FOR nfz GREATER
 THAN 1. FROZEN PERFORMANCE CALCULATIONS WERE OMITTED (ROCKET)










              THEORETICAL ROCKET PERFORMANCE ASSUMING EQUILIBRIUM

           COMPOSITION DURING EXPANSION FROM INFINITE AREA COMBUSTOR

 Pin =  2939.2 PSIA
 CASE = RS25Jacob______

             REACTANT                    WT FRACTION      ENERGY      TEMP
                                          (SEE NOTE)     KJ/KG-MOL      K  
 FUEL        H2(L)                        1.0000000     -9012.000     20.270
 OXIDANT     O2(L)                        1.0000000    -12979.000     90.170

 O/F=    3.40000  %FUEL= 22.727273  R,EQ.RATIO= 2.334318  PHI,EQ.RATIO= 2.334318

                 CHAMBER   THROAT
 Pinf/P            1.0000   1.7902
 P, BAR            202.65   113.20
 T, K             2680.26  2411.54
 RHO, KG/CU M    8.0522 0 5.0040 0
 H, KJ/KG        -1329.45 -2720.08
 U, KJ/KG        -3846.14 -4982.19
 G, KJ/KG        -60460.5 -55922.8
 S, KJ/(KG)(K)    22.0617  22.0617

 M, (1/n)           8.855    8.864
 (dLV/dLP)t      -1.00085 -1.00035
 (dLV/dLT)p        1.0181   1.0081
 Cp, KJ/(KG)(K)    5.3941   5.0980
 GAMMAs            1.2189   1.2295
 SON VEL,M/SEC     1751.5   1667.7
 MACH NUMBER        0.000    1.000

 TRANSPORT PROPERTIES (GASES ONLY)
   CONDUCTIVITY IN UNITS OF MILLIWATTS/(CM)(K)

 VISC,MILLIPOISE  0.78260  0.72446

  WITH EQUILIBRIUM REACTIONS

 Cp, KJ/(KG)(K)    5.3941   5.0980
 CONDUCTIVITY      7.1584   6.0564
 PRANDTL NUMBER    0.5897   0.6098

  WITH FROZEN REACTIONS

 Cp, KJ/(KG)(K)    5.0264   4.9173
 CONDUCTIVITY      6.1654   5.5900
 PRANDTL NUMBER    0.6380   0.6373

 PERFORMANCE PARAMETERS

 Ae/At                      1.0000
 CSTAR, M/SEC               2428.3
 CF                         0.6868
 Ivac, M/SEC                3024.1
 Isp, M/SEC                 1667.7


 MOLE FRACTIONS

 *H               0.00280  0.00120
 *H2              0.56954  0.57071
 H2O              0.42709  0.42791
 *OH              0.00058  0.00018

  * THERMODYNAMIC PROPERTIES FITTED TO 20000.K

 NOTE. WEIGHT FRACTION OF FUEL IN TOTAL FUELS AND OF OXIDANT IN TOTAL OXIDANTS

 WARNING!!  FREEZING IS NOT ALLOWED AT A SUBSONIC PRESSURE RATIO FOR nfz GREATER
 THAN 1. FROZEN PERFORMANCE CALCULATIONS WERE OMITTED (ROCKET)










              THEORETICAL ROCKET PERFORMANCE ASSUMING EQUILIBRIUM

           COMPOSITION DURING EXPANSION FROM INFINITE AREA COMBUSTOR

 Pin =  2939.2 PSIA
 CASE = RS25Jacob______

             REACTANT                    WT FRACTION      ENERGY      TEMP
                                          (SEE NOTE)     KJ/KG-MOL      K  
 FUEL        H2(L)                        1.0000000     -9012.000     20.270
 OXIDANT     O2(L)                        1.0000000    -12979.000     90.170

 O/F=    3.50000  %FUEL= 22.222222  R,EQ.RATIO= 2.267624  PHI,EQ.RATIO= 2.267624

                 CHAMBER   THROAT
 Pinf/P            1.0000   1.7878
 P, BAR            202.65   113.35
 T, K             2732.93  2463.79
 RHO, KG/CU M    8.0734 0 5.0150 0
 H, KJ/KG        -1308.92 -2693.91
 U, KJ/KG        -3819.01 -4954.11
 G, KJ/KG        -60865.5 -56385.4
 S, KJ/(KG)(K)    21.7922  21.7922

 M, (1/n)           9.053    9.063
 (dLV/dLP)t      -1.00104 -1.00044
 (dLV/dLT)p        1.0219   1.0102
 Cp, KJ/(KG)(K)    5.3890   5.0747
 GAMMAs            1.2150   1.2256
 SON VEL,M/SEC     1746.3   1664.3
 MACH NUMBER        0.000    1.000

 TRANSPORT PROPERTIES (GASES ONLY)
   CONDUCTIVITY IN UNITS OF MILLIWATTS/(CM)(K)

 VISC,MILLIPOISE  0.79882  0.74056

  WITH EQUILIBRIUM REACTIONS

 Cp, KJ/(KG)(K)    5.3890   5.0747
 CONDUCTIVITY      7.3546   6.1894
 PRANDTL NUMBER    0.5853   0.6072

  WITH FROZEN REACTIONS

 Cp, KJ/(KG)(K)    4.9606   4.8564
 CONDUCTIVITY      6.1853   5.6180
 PRANDTL NUMBER    0.6406   0.6402

 PERFORMANCE PARAMETERS

 Ae/At                      1.0000
 CSTAR, M/SEC               2427.9
 CF                         0.6855
 Ivac, M/SEC                3022.4
 Isp, M/SEC                 1664.3


 MOLE FRACTIONS

 *H               0.00337  0.00150
 *H2              0.55655  0.55790
 H2O              0.43930  0.44034
 *OH              0.00077  0.00026

  * THERMODYNAMIC PROPERTIES FITTED TO 20000.K

 NOTE. WEIGHT FRACTION OF FUEL IN TOTAL FUELS AND OF OXIDANT IN TOTAL OXIDANTS

 WARNING!!  FREEZING IS NOT ALLOWED AT A SUBSONIC PRESSURE RATIO FOR nfz GREATER
 THAN 1. FROZEN PERFORMANCE CALCULATIONS WERE OMITTED (ROCKET)










              THEORETICAL ROCKET PERFORMANCE ASSUMING EQUILIBRIUM

           COMPOSITION DURING EXPANSION FROM INFINITE AREA COMBUSTOR

 Pin =  2939.2 PSIA
 CASE = RS25Jacob______

             REACTANT                    WT FRACTION      ENERGY      TEMP
                                          (SEE NOTE)     KJ/KG-MOL      K  
 FUEL        H2(L)                        1.0000000     -9012.000     20.270
 OXIDANT     O2(L)                        1.0000000    -12979.000     90.170

 O/F=    3.60000  %FUEL= 21.739130  R,EQ.RATIO= 2.204634  PHI,EQ.RATIO= 2.204634

                 CHAMBER   THROAT
 Pinf/P            1.0000   1.7855
 P, BAR            202.65   113.50
 T, K             2784.19  2514.96
 RHO, KG/CU M    8.0973 0 5.0277 0
 H, KJ/KG        -1289.28 -2668.22
 U, KJ/KG        -3791.97 -4925.72
 G, KJ/KG        -61238.3 -56820.3
 S, KJ/(KG)(K)    21.5320  21.5320

 M, (1/n)           9.250    9.263
 (dLV/dLP)t      -1.00126 -1.00056
 (dLV/dLT)p        1.0262   1.0127
 Cp, KJ/(KG)(K)    5.3912   5.0580
 GAMMAs            1.2111   1.2216
 SON VEL,M/SEC     1741.0   1660.7
 MACH NUMBER        0.000    1.000

 TRANSPORT PROPERTIES (GASES ONLY)
   CONDUCTIVITY IN UNITS OF MILLIWATTS/(CM)(K)

 VISC,MILLIPOISE  0.81465  0.75635

  WITH EQUILIBRIUM REACTIONS

 Cp, KJ/(KG)(K)    5.3912   5.0580
 CONDUCTIVITY      7.5627   6.3331
 PRANDTL NUMBER    0.5807   0.6041

  WITH FROZEN REACTIONS

 Cp, KJ/(KG)(K)    4.8968   4.7974
 CONDUCTIVITY      6.2009   5.6422
 PRANDTL NUMBER    0.6433   0.6431

 PERFORMANCE PARAMETERS

 Ae/At                      1.0000
 CSTAR, M/SEC               2427.1
 CF                         0.6842
 Ivac, M/SEC                3020.1
 Isp, M/SEC                 1660.7


 MOLE FRACTIONS

 *H               0.00401  0.00186
 *H2              0.54354  0.54505
 H2O              0.45143  0.45273
 *OH              0.00101  0.00036

  * THERMODYNAMIC PROPERTIES FITTED TO 20000.K

 NOTE. WEIGHT FRACTION OF FUEL IN TOTAL FUELS AND OF OXIDANT IN TOTAL OXIDANTS

 WARNING!!  FREEZING IS NOT ALLOWED AT A SUBSONIC PRESSURE RATIO FOR nfz GREATER
 THAN 1. FROZEN PERFORMANCE CALCULATIONS WERE OMITTED (ROCKET)










              THEORETICAL ROCKET PERFORMANCE ASSUMING EQUILIBRIUM

           COMPOSITION DURING EXPANSION FROM INFINITE AREA COMBUSTOR

 Pin =  2939.2 PSIA
 CASE = RS25Jacob______

             REACTANT                    WT FRACTION      ENERGY      TEMP
                                          (SEE NOTE)     KJ/KG-MOL      K  
 FUEL        H2(L)                        1.0000000     -9012.000     20.270
 OXIDANT     O2(L)                        1.0000000    -12979.000     90.170

 O/F=    3.70000  %FUEL= 21.276596  R,EQ.RATIO= 2.145049  PHI,EQ.RATIO= 2.145049

                 CHAMBER   THROAT
 Pinf/P            1.0000   1.7831
 P, BAR            202.65   113.65
 T, K             2834.02  2565.04
 RHO, KG/CU M    8.1237 0 5.0420 0
 H, KJ/KG        -1270.48 -2642.96
 U, KJ/KG        -3765.02 -4897.04
 G, KJ/KG        -61580.0 -57228.2
 S, KJ/(KG)(K)    21.2805  21.2805

 M, (1/n)           9.446    9.462
 (dLV/dLP)t      -1.00151 -1.00069
 (dLV/dLT)p        1.0311   1.0155
 Cp, KJ/(KG)(K)    5.4008   5.0481
 GAMMAs            1.2074   1.2178
 SON VEL,M/SEC     1735.5   1656.8
 MACH NUMBER        0.000    1.000

 TRANSPORT PROPERTIES (GASES ONLY)
   CONDUCTIVITY IN UNITS OF MILLIWATTS/(CM)(K)

 VISC,MILLIPOISE  0.83011  0.77182

  WITH EQUILIBRIUM REACTIONS

 Cp, KJ/(KG)(K)    5.4008   5.0481
 CONDUCTIVITY      7.7823   6.4878
 PRANDTL NUMBER    0.5761   0.6005

  WITH FROZEN REACTIONS

 Cp, KJ/(KG)(K)    4.8349   4.7400
 CONDUCTIVITY      6.2123   5.6626
 PRANDTL NUMBER    0.6461   0.6461

 PERFORMANCE PARAMETERS

 Ae/At                      1.0000
 CSTAR, M/SEC               2425.9
 CF                         0.6830
 Ivac, M/SEC                3017.3
 Isp, M/SEC                 1656.8


 MOLE FRACTIONS

 *H               0.00472  0.00228
 *H2              0.53050  0.53218
 H2O              0.46347  0.46506
 *O               0.00001  0.00000
 *OH              0.00130  0.00049

  * THERMODYNAMIC PROPERTIES FITTED TO 20000.K

 NOTE. WEIGHT FRACTION OF FUEL IN TOTAL FUELS AND OF OXIDANT IN TOTAL OXIDANTS

 WARNING!!  FREEZING IS NOT ALLOWED AT A SUBSONIC PRESSURE RATIO FOR nfz GREATER
 THAN 1. FROZEN PERFORMANCE CALCULATIONS WERE OMITTED (ROCKET)










              THEORETICAL ROCKET PERFORMANCE ASSUMING EQUILIBRIUM

           COMPOSITION DURING EXPANSION FROM INFINITE AREA COMBUSTOR

 Pin =  2939.2 PSIA
 CASE = RS25Jacob______

             REACTANT                    WT FRACTION      ENERGY      TEMP
                                          (SEE NOTE)     KJ/KG-MOL      K  
 FUEL        H2(L)                        1.0000000     -9012.000     20.270
 OXIDANT     O2(L)                        1.0000000    -12979.000     90.170

 O/F=    3.80000  %FUEL= 20.833333  R,EQ.RATIO= 2.088601  PHI,EQ.RATIO= 2.088601

                 CHAMBER   THROAT
 Pinf/P            1.0000   1.7808
 P, BAR            202.65   113.80
 T, K             2882.44  2614.00
 RHO, KG/CU M    8.1526 0 5.0578 0
 H, KJ/KG        -1252.46 -2618.13
 U, KJ/KG        -3738.18 -4868.10
 G, KJ/KG        -61891.4 -57609.8
 S, KJ/(KG)(K)    21.0374  21.0374

 M, (1/n)           9.642    9.660
 (dLV/dLP)t      -1.00180 -1.00085
 (dLV/dLT)p        1.0364   1.0188
 Cp, KJ/(KG)(K)    5.4174   5.0449
 GAMMAs            1.2037   1.2139
 SON VEL,M/SEC     1729.7   1652.7
 MACH NUMBER        0.000    1.000

 TRANSPORT PROPERTIES (GASES ONLY)
   CONDUCTIVITY IN UNITS OF MILLIWATTS/(CM)(K)

 VISC,MILLIPOISE  0.84517  0.78697

  WITH EQUILIBRIUM REACTIONS

 Cp, KJ/(KG)(K)    5.4174   5.0449
 CONDUCTIVITY      8.0128   6.6540
 PRANDTL NUMBER    0.5714   0.5967

  WITH FROZEN REACTIONS

 Cp, KJ/(KG)(K)    4.7749   4.6844
 CONDUCTIVITY      6.2199   5.6795
 PRANDTL NUMBER    0.6488   0.6491

 PERFORMANCE PARAMETERS

 Ae/At                      1.0000
 CSTAR, M/SEC               2424.3
 CF                         0.6817
 Ivac, M/SEC                3014.1
 Isp, M/SEC                 1652.7


 MOLE FRACTIONS

 *H               0.00549  0.00275
 *H2              0.51744  0.51928
 H2O              0.47540  0.47732
 *O               0.00001  0.00000
 *OH              0.00166  0.00065

  * THERMODYNAMIC PROPERTIES FITTED TO 20000.K

 NOTE. WEIGHT FRACTION OF FUEL IN TOTAL FUELS AND OF OXIDANT IN TOTAL OXIDANTS

 WARNING!!  FREEZING IS NOT ALLOWED AT A SUBSONIC PRESSURE RATIO FOR nfz GREATER
 THAN 1. FROZEN PERFORMANCE CALCULATIONS WERE OMITTED (ROCKET)










              THEORETICAL ROCKET PERFORMANCE ASSUMING EQUILIBRIUM

           COMPOSITION DURING EXPANSION FROM INFINITE AREA COMBUSTOR

 Pin =  2939.2 PSIA
 CASE = RS25Jacob______

             REACTANT                    WT FRACTION      ENERGY      TEMP
                                          (SEE NOTE)     KJ/KG-MOL      K  
 FUEL        H2(L)                        1.0000000     -9012.000     20.270
 OXIDANT     O2(L)                        1.0000000    -12979.000     90.170

 O/F=    3.90000  %FUEL= 20.408163  R,EQ.RATIO= 2.035047  PHI,EQ.RATIO= 2.035047

                 CHAMBER   THROAT
 Pinf/P            1.0000   1.7784
 P, BAR            202.65   113.95
 T, K             2929.42  2661.83
 RHO, KG/CU M    8.1837 0 5.0752 0
 H, KJ/KG        -1235.18 -2593.71
 U, KJ/KG        -3711.43 -4838.92
 G, KJ/KG        -62173.6 -57965.5
 S, KJ/(KG)(K)    20.8022  20.8022

 M, (1/n)           9.836    9.857
 (dLV/dLP)t      -1.00212 -1.00104
 (dLV/dLT)p        1.0424   1.0226
 Cp, KJ/(KG)(K)    5.4411   5.0486
 GAMMAs            1.2000   1.2102
 SON VEL,M/SEC     1723.8   1648.4
 MACH NUMBER        0.000    1.000

 TRANSPORT PROPERTIES (GASES ONLY)
   CONDUCTIVITY IN UNITS OF MILLIWATTS/(CM)(K)

 VISC,MILLIPOISE  0.85986  0.80179

  WITH EQUILIBRIUM REACTIONS

 Cp, KJ/(KG)(K)    5.4411   5.0486
 CONDUCTIVITY      8.2536   6.8319
 PRANDTL NUMBER    0.5669   0.5925

  WITH FROZEN REACTIONS

 Cp, KJ/(KG)(K)    4.7167   4.6303
 CONDUCTIVITY      6.2238   5.6931
 PRANDTL NUMBER    0.6516   0.6521

 PERFORMANCE PARAMETERS

 Ae/At                      1.0000
 CSTAR, M/SEC               2422.4
 CF                         0.6805
 Ivac, M/SEC                3010.4
 Isp, M/SEC                 1648.4


 MOLE FRACTIONS

 *H               0.00632  0.00328
 *H2              0.50437  0.50635
 H2O              0.48721  0.48951
 *O               0.00001  0.00000
 *OH              0.00208  0.00086
 *O2              0.00001  0.00000

  * THERMODYNAMIC PROPERTIES FITTED TO 20000.K

[...]

 M, (1/n)          23.476   23.594
 (dLV/dLP)t      -1.00526 -1.00348
 (dLV/dLT)p        1.1172   1.0849
 Cp, KJ/(KG)(K)    3.0643   2.8275
 GAMMAs            1.1615   1.1672
 SON VEL,M/SEC     1116.1   1075.4
 MACH NUMBER        0.000    1.000

 TRANSPORT PROPERTIES (GASES ONLY)
   CONDUCTIVITY IN UNITS OF MILLIWATTS/(CM)(K)

 VISC,MILLIPOISE  0.99829  0.94634

  WITH EQUILIBRIUM REACTIONS

 Cp, KJ/(KG)(K)    3.0643   2.8275
 CONDUCTIVITY      5.0095   4.2221
 PRANDTL NUMBER    0.6106   0.6338

  WITH FROZEN REACTIONS

 Cp, KJ/(KG)(K)    2.0890   2.0632
 CONDUCTIVITY      2.8940   2.6942
 PRANDTL NUMBER    0.7206   0.7247

 PERFORMANCE PARAMETERS

 Ae/At                      1.0000
 CSTAR, M/SEC               1614.3
 CF                         0.6662
 Ivac, M/SEC                1996.9
 Isp, M/SEC                 1075.4


 MOLE FRACTIONS

 *H               0.00066  0.00034
 HO2              0.00065  0.00038
 *H2              0.00300  0.00186
 H2O              0.54769  0.55836
 H2O2             0.00009  0.00005
 *O               0.00552  0.00336
 *OH              0.04446  0.03184
 *O2              0.39792  0.40380
 O3               0.00001  0.00000

  * THERMODYNAMIC PROPERTIES FITTED TO 20000.K

 NOTE. WEIGHT FRACTION OF FUEL IN TOTAL FUELS AND OF OXIDANT IN TOTAL OXIDANTS

 WARNING!!  FREEZING IS NOT ALLOWED AT A SUBSONIC PRESSURE RATIO FOR nfz GREATER
 THAN 1. FROZEN PERFORMANCE CALCULATIONS WERE OMITTED (ROCKET)










              THEORETICAL ROCKET PERFORMANCE ASSUMING EQUILIBRIUM

           COMPOSITION DURING EXPANSION FROM INFINITE AREA COMBUSTOR

 Pin =  2939.2 PSIA
 CASE = RS25Jacob______

             REACTANT                    WT FRACTION      ENERGY      TEMP
                                          (SEE NOTE)     KJ/KG-MOL      K  
 FUEL        H2(L)                        1.0000000     -9012.000     20.270
 OXIDANT     O2(L)                        1.0000000    -12979.000     90.170

 O/F=   19.40000  %FUEL=  4.901961  R,EQ.RATIO= 0.409107  PHI,EQ.RATIO= 0.409107

                 CHAMBER   THROAT
 Pinf/P            1.0000   1.7522
 P, BAR            202.65   115.66
 T, K             3022.00  2805.71
 RHO, KG/CU M    1.8962 1 1.1714 1
 H, KJ/KG         -604.87 -1181.25
 U, KJ/KG        -1673.58 -2168.55
 G, KJ/KG        -32427.1 -30725.9
 S, KJ/(KG)(K)    10.5302  10.5302

 M, (1/n)          23.511   23.628
 (dLV/dLP)t      -1.00517 -1.00341
 (dLV/dLT)p        1.1155   1.0835
 Cp, KJ/(KG)(K)    3.0468   2.8110
 GAMMAs            1.1618   1.1676
 SON VEL,M/SEC     1114.3   1073.7
 MACH NUMBER        0.000    1.000

 TRANSPORT PROPERTIES (GASES ONLY)
   CONDUCTIVITY IN UNITS OF MILLIWATTS/(CM)(K)

 VISC,MILLIPOISE  0.99689  0.94489

  WITH EQUILIBRIUM REACTIONS

 Cp, KJ/(KG)(K)    3.0468   2.8110
 CONDUCTIVITY      4.9651   4.1834
 PRANDTL NUMBER    0.6117   0.6349

  WITH FROZEN REACTIONS

 Cp, KJ/(KG)(K)    2.0842   2.0584
 CONDUCTIVITY      2.8834   2.6838
 PRANDTL NUMBER    0.7206   0.7247

 PERFORMANCE PARAMETERS

 Ae/At                      1.0000
 CSTAR, M/SEC               1611.2
 CF                         0.6664
 Ivac, M/SEC                1993.2
 Isp, M/SEC                 1073.7


 MOLE FRACTIONS

 *H               0.00064  0.00033
 HO2              0.00065  0.00038
 *H2              0.00292  0.00181
 H2O              0.54610  0.55667
 H2O2             0.00009  0.00005
 *O               0.00542  0.00329
 *OH              0.04390  0.03135
 *O2              0.40027  0.40612
 O3               0.00001  0.00000

  * THERMODYNAMIC PROPERTIES FITTED TO 20000.K

 NOTE. WEIGHT FRACTION OF FUEL IN TOTAL FUELS AND OF OXIDANT IN TOTAL OXIDANTS

 WARNING!!  FREEZING IS NOT ALLOWED AT A SUBSONIC PRESSURE RATIO FOR nfz GREATER
 THAN 1. FROZEN PERFORMANCE CALCULATIONS WERE OMITTED (ROCKET)










              THEORETICAL ROCKET PERFORMANCE ASSUMING EQUILIBRIUM

           COMPOSITION DURING EXPANSION FROM INFINITE AREA COMBUSTOR

 Pin =  2939.2 PSIA
 CASE = RS25Jacob______

             REACTANT                    WT FRACTION      ENERGY      TEMP
                                          (SEE NOTE)     KJ/KG-MOL      K  
 FUEL        H2(L)                        1.0000000     -9012.000     20.270
 OXIDANT     O2(L)                        1.0000000    -12979.000     90.170

 O/F=   19.50000  %FUEL=  4.878049  R,EQ.RATIO= 0.407009  PHI,EQ.RATIO= 0.407009

                 CHAMBER   THROAT
 Pinf/P            1.0000   1.7524
 P, BAR            202.65   115.64
 T, K             3015.98  2799.45
 RHO, KG/CU M    1.9028 1 1.1755 1
 H, KJ/KG         -603.90 -1178.39
 U, KJ/KG        -1668.91 -2162.08
 G, KJ/KG        -32304.8 -30603.4
 S, KJ/(KG)(K)    10.5110  10.5110

 M, (1/n)          23.546   23.662
 (dLV/dLP)t      -1.00508 -1.00335
 (dLV/dLT)p        1.1139   1.0821
 Cp, KJ/(KG)(K)    3.0296   2.7948
 GAMMAs            1.1622   1.1680
 SON VEL,M/SEC     1112.5   1071.9
 MACH NUMBER        0.000    1.000

 TRANSPORT PROPERTIES (GASES ONLY)
   CONDUCTIVITY IN UNITS OF MILLIWATTS/(CM)(K)

 VISC,MILLIPOISE  0.99549  0.94343

  WITH EQUILIBRIUM REACTIONS

 Cp, KJ/(KG)(K)    3.0296   2.7948
 CONDUCTIVITY      4.9213   4.1453
 PRANDTL NUMBER    0.6128   0.6361

  WITH FROZEN REACTIONS

 Cp, KJ/(KG)(K)    2.0795   2.0536
 CONDUCTIVITY      2.8729   2.6734
 PRANDTL NUMBER    0.7206   0.7247

 PERFORMANCE PARAMETERS

 Ae/At                      1.0000
 CSTAR, M/SEC               1608.2
 CF                         0.6665
 Ivac, M/SEC                1989.6
 Isp, M/SEC                 1071.9


 MOLE FRACTIONS

 *H               0.00062  0.00032
 HO2              0.00064  0.00037
 *H2              0.00285  0.00175
 H2O              0.54452  0.55499
 H2O2             0.00009  0.00005
 *O               0.00533  0.00322
 *OH              0.04335  0.03087
 *O2              0.40260  0.40842
 O3               0.00001  0.00000

  * THERMODYNAMIC PROPERTIES FITTED TO 20000.K

 NOTE. WEIGHT FRACTION OF FUEL IN TOTAL FUELS AND OF OXIDANT IN TOTAL OXIDANTS

 WARNING!!  FREEZING IS NOT ALLOWED AT A SUBSONIC PRESSURE RATIO FOR nfz GREATER
 THAN 1. FROZEN PERFORMANCE CALCULATIONS WERE OMITTED (ROCKET)










              THEORETICAL ROCKET PERFORMANCE ASSUMING EQUILIBRIUM

           COMPOSITION DURING EXPANSION FROM INFINITE AREA COMBUSTOR

 Pin =  2939.2 PSIA
 CASE = RS25Jacob______

             REACTANT                    WT FRACTION      ENERGY      TEMP
                                          (SEE NOTE)     KJ/KG-MOL      K  
 FUEL        H2(L)                        1.0000000     -9012.000     20.270
 OXIDANT     O2(L)                        1.0000000    -12979.000     90.170

 O/F=   19.60000  %FUEL=  4.854369  R,EQ.RATIO= 0.404933  PHI,EQ.RATIO= 0.404933

                 CHAMBER   THROAT
 Pinf/P            1.0000   1.7527
 P, BAR            202.65   115.62
 T, K             3009.97  2793.21
 RHO, KG/CU M    1.9094 1 1.1797 1
 H, KJ/KG         -602.93 -1175.55
 U, KJ/KG        -1664.27 -2155.66
 G, KJ/KG        -32183.4 -30481.8
 S, KJ/(KG)(K)    10.4920  10.4920

 M, (1/n)          23.580   23.695
 (dLV/dLP)t      -1.00500 -1.00328
 (dLV/dLT)p        1.1123   1.0807
 Cp, KJ/(KG)(K)    3.0126   2.7787
 GAMMAs            1.1625   1.1685
 SON VEL,M/SEC     1110.8   1070.2
 MACH NUMBER        0.000    1.000

 TRANSPORT PROPERTIES (GASES ONLY)
   CONDUCTIVITY IN UNITS OF MILLIWATTS/(CM)(K)

 VISC,MILLIPOISE  0.99410  0.94199

  WITH EQUILIBRIUM REACTIONS

 Cp, KJ/(KG)(K)    3.0126   2.7787
 CONDUCTIVITY      4.8781   4.1078
 PRANDTL NUMBER    0.6139   0.6372

  WITH FROZEN REACTIONS

 Cp, KJ/(KG)(K)    2.0748   2.0488
 CONDUCTIVITY      2.8624   2.6631
 PRANDTL NUMBER    0.7205   0.7247

 PERFORMANCE PARAMETERS

 Ae/At                      1.0000
 CSTAR, M/SEC               1605.3
 CF                         0.6667
 Ivac, M/SEC                1986.0
 Isp, M/SEC                 1070.2


 MOLE FRACTIONS

 *H               0.00060  0.00031
 HO2              0.00064  0.00037
 *H2              0.00277  0.00170
 H2O              0.54295  0.55331
 H2O2             0.00009  0.00005
 *O               0.00523  0.00315
 *OH              0.04280  0.03040
 *O2              0.40492  0.41071
 O3               0.00001  0.00000

  * THERMODYNAMIC PROPERTIES FITTED TO 20000.K

 NOTE. WEIGHT FRACTION OF FUEL IN TOTAL FUELS AND OF OXIDANT IN TOTAL OXIDANTS

 WARNING!!  FREEZING IS NOT ALLOWED AT A SUBSONIC PRESSURE RATIO FOR nfz GREATER
 THAN 1. FROZEN PERFORMANCE CALCULATIONS WERE OMITTED (ROCKET)










              THEORETICAL ROCKET PERFORMANCE ASSUMING EQUILIBRIUM

           COMPOSITION DURING EXPANSION FROM INFINITE AREA COMBUSTOR

 Pin =  2939.2 PSIA
 CASE = RS25Jacob______

             REACTANT                    WT FRACTION      ENERGY      TEMP
                                          (SEE NOTE)     KJ/KG-MOL      K  
 FUEL        H2(L)                        1.0000000     -9012.000     20.270
 OXIDANT     O2(L)                        1.0000000    -12979.000     90.170

 O/F=   19.70000  %FUEL=  4.830918  R,EQ.RATIO= 0.402877  PHI,EQ.RATIO= 0.402877

                 CHAMBER   THROAT
 Pinf/P            1.0000   1.7530
 P, BAR            202.65   115.60
 T, K             3003.97  2786.97
 RHO, KG/CU M    1.9160 1 1.1838 1
 H, KJ/KG         -601.98 -1172.74
 U, KJ/KG        -1659.66 -2149.30
 G, KJ/KG        -32062.9 -30361.1
 S, KJ/(KG)(K)    10.4731  10.4731

 M, (1/n)          23.614   23.729
 (dLV/dLP)t      -1.00491 -1.00322
 (dLV/dLT)p        1.1107   1.0793
 Cp, KJ/(KG)(K)    2.9957   2.7628
 GAMMAs            1.1629   1.1690
 SON VEL,M/SEC     1109.0   1068.4
 MACH NUMBER        0.000    1.000

 TRANSPORT PROPERTIES (GASES ONLY)
   CONDUCTIVITY IN UNITS OF MILLIWATTS/(CM)(K)

 VISC,MILLIPOISE  0.99271  0.94054

  WITH EQUILIBRIUM REACTIONS

 Cp, KJ/(KG)(K)    2.9957   2.7628
 CONDUCTIVITY      4.8356   4.0709
 PRANDTL NUMBER    0.6150   0.6383

  WITH FROZEN REACTIONS

 Cp, KJ/(KG)(K)    2.0701   2.0441
 CONDUCTIVITY      2.8521   2.6529
 PRANDTL NUMBER    0.7205   0.7247

 PERFORMANCE PARAMETERS

 Ae/At                      1.0000
 CSTAR, M/SEC               1602.3
 CF                         0.6668
 Ivac, M/SEC                1982.4
 Isp, M/SEC                 1068.4


 MOLE FRACTIONS

 *H               0.00058  0.00030
 HO2              0.00063  0.00037
 *H2              0.00270  0.00165
 H2O              0.54138  0.55165
 H2O2             0.00009  0.00005
 *O               0.00514  0.00308
 *OH              0.04226  0.02993
 *O2              0.40721  0.41298
 O3               0.00001  0.00000

  * THERMODYNAMIC PROPERTIES FITTED TO 20000.K

 NOTE. WEIGHT FRACTION OF FUEL IN TOTAL FUELS AND OF OXIDANT IN TOTAL OXIDANTS

 WARNING!!  FREEZING IS NOT ALLOWED AT A SUBSONIC PRESSURE RATIO FOR nfz GREATER
 THAN 1. FROZEN PERFORMANCE CALCULATIONS WERE OMITTED (ROCKET)










              THEORETICAL ROCKET PERFORMANCE ASSUMING EQUILIBRIUM

           COMPOSITION DURING EXPANSION FROM INFINITE AREA COMBUSTOR

 Pin =  2939.2 PSIA
 CASE = RS25Jacob______

             REACTANT                    WT FRACTION      ENERGY      TEMP
                                          (SEE NOTE)     KJ/KG-MOL      K  
 FUEL        H2(L)                        1.0000000     -9012.000     20.270
 OXIDANT     O2(L)                        1.0000000    -12979.000     90.170

 O/F=   19.80000  %FUEL=  4.807692  R,EQ.RATIO= 0.400843  PHI,EQ.RATIO= 0.400843

                 CHAMBER   THROAT
 Pinf/P            1.0000   1.7533
 P, BAR            202.65   115.58
 T, K             2997.98  2780.76
 RHO, KG/CU M    1.9226 1 1.1879 1
 H, KJ/KG         -601.04 -1169.95
 U, KJ/KG        -1655.10 -2142.98
 G, KJ/KG        -31943.3 -30241.3
 S, KJ/(KG)(K)    10.4545  10.4545

 M, (1/n)          23.648   23.762
 (dLV/dLP)t      -1.00483 -1.00315
 (dLV/dLT)p        1.1091   1.0780
 Cp, KJ/(KG)(K)    2.9791   2.7471
 GAMMAs            1.1633   1.1694
 SON VEL,M/SEC     1107.3   1066.7
 MACH NUMBER        0.000    1.000

 TRANSPORT PROPERTIES (GASES ONLY)
   CONDUCTIVITY IN UNITS OF MILLIWATTS/(CM)(K)

 VISC,MILLIPOISE  0.99133  0.93910

  WITH EQUILIBRIUM REACTIONS

 Cp, KJ/(KG)(K)    2.9791   2.7471
 CONDUCTIVITY      4.7937   4.0345
 PRANDTL NUMBER    0.6161   0.6394

  WITH FROZEN REACTIONS

 Cp, KJ/(KG)(K)    2.0655   2.0394
 CONDUCTIVITY      2.8418   2.6427
 PRANDTL NUMBER    0.7205   0.7247

 PERFORMANCE PARAMETERS

 Ae/At                      1.0000
 CSTAR, M/SEC               1599.3
 CF                         0.6670
 Ivac, M/SEC                1978.9
 Isp, M/SEC                 1066.7


 MOLE FRACTIONS

 *H               0.00057  0.00029
 HO2              0.00063  0.00036
 *H2              0.00263  0.00160
 H2O              0.53982  0.54999
 H2O2             0.00009  0.00005
 *O               0.00505  0.00301
 *OH              0.04172  0.02947
 *O2              0.40950  0.41523

  * THERMODYNAMIC PROPERTIES FITTED TO 20000.K

 NOTE. WEIGHT FRACTION OF FUEL IN TOTAL FUELS AND OF OXIDANT IN TOTAL OXIDANTS

 WARNING!!  FREEZING IS NOT ALLOWED AT A SUBSONIC PRESSURE RATIO FOR nfz GREATER
 THAN 1. FROZEN PERFORMANCE CALCULATIONS WERE OMITTED (ROCKET)










              THEORETICAL ROCKET PERFORMANCE ASSUMING EQUILIBRIUM

           COMPOSITION DURING EXPANSION FROM INFINITE AREA COMBUSTOR

 Pin =  2939.2 PSIA
 CASE = RS25Jacob______

             REACTANT                    WT FRACTION      ENERGY      TEMP
                                          (SEE NOTE)     KJ/KG-MOL      K  
 FUEL        H2(L)                        1.0000000     -9012.000     20.270
 OXIDANT     O2(L)                        1.0000000    -12979.000     90.170

 O/F=   19.90000  %FUEL=  4.784689  R,EQ.RATIO= 0.398828  PHI,EQ.RATIO= 0.398828

                 CHAMBER   THROAT
 Pinf/P            1.0000   1.7536
 P, BAR            202.65   115.56
 T, K             2992.02  2774.56
 RHO, KG/CU M    1.9291 1 1.1920 1
 H, KJ/KG         -600.10 -1167.19
 U, KJ/KG        -1650.57 -2136.71
 G, KJ/KG        -31824.6 -30122.3
 S, KJ/(KG)(K)    10.4359  10.4359

 M, (1/n)          23.682   23.794
 (dLV/dLP)t      -1.00475 -1.00309
 (dLV/dLT)p        1.1075   1.0767
 Cp, KJ/(KG)(K)    2.9626   2.7317
 GAMMAs            1.1636   1.1699
 SON VEL,M/SEC     1105.6   1065.0
 MACH NUMBER        0.000    1.000

 TRANSPORT PROPERTIES (GASES ONLY)
   CONDUCTIVITY IN UNITS OF MILLIWATTS/(CM)(K)

 VISC,MILLIPOISE  0.98995  0.93766

  WITH EQUILIBRIUM REACTIONS

 Cp, KJ/(KG)(K)    2.9626   2.7317
 CONDUCTIVITY      4.7524   3.9987
 PRANDTL NUMBER    0.6171   0.6406

  WITH FROZEN REACTIONS

 Cp, KJ/(KG)(K)    2.0609   2.0348
 CONDUCTIVITY      2.8316   2.6326
 PRANDTL NUMBER    0.7205   0.7247

 PERFORMANCE PARAMETERS

 Ae/At                      1.0000
 CSTAR, M/SEC               1596.4
 CF                         0.6671
 Ivac, M/SEC                1975.3
 Isp, M/SEC                 1065.0


 MOLE FRACTIONS

 *H               0.00055  0.00027
 HO2              0.00062  0.00036
 *H2              0.00257  0.00155
 H2O              0.53826  0.54833
 H2O2             0.00008  0.00005
 *O               0.00496  0.00295
 *OH              0.04119  0.02902
 *O2              0.41176  0.41747

  * THERMODYNAMIC PROPERTIES FITTED TO 20000.K

 NOTE. WEIGHT FRACTION OF FUEL IN TOTAL FUELS AND OF OXIDANT IN TOTAL OXIDANTS

 WARNING!!  FREEZING IS NOT ALLOWED AT A SUBSONIC PRESSURE RATIO FOR nfz GREATER
 THAN 1. FROZEN PERFORMANCE CALCULATIONS WERE OMITTED (ROCKET)










              THEORETICAL ROCKET PERFORMANCE ASSUMING EQUILIBRIUM

           COMPOSITION DURING EXPANSION FROM INFINITE AREA COMBUSTOR

 Pin =  2939.2 PSIA
 CASE = RS25Jacob______

             REACTANT                    WT FRACTION      ENERGY      TEMP
                                          (SEE NOTE)     KJ/KG-MOL      K  
 FUEL        H2(L)                        1.0000000     -9012.000     20.270
 OXIDANT     O2(L)                        1.0000000    -12979.000     90.170

 O/F=   20.00000  %FUEL=  4.761905  R,EQ.RATIO= 0.396834  PHI,EQ.RATIO= 0.396834

                 CHAMBER   THROAT
 Pinf/P            1.0000   1.7539
 P, BAR            202.65   115.55
 T, K             2986.06  2768.37
 RHO, KG/CU M    1.9357 1 1.1961 1
 H, KJ/KG         -599.18 -1164.45
 U, KJ/KG        -1646.07 -2130.49
 G, KJ/KG        -31706.7 -30004.2
 S, KJ/(KG)(K)    10.4176  10.4176

 M, (1/n)          23.715   23.827
 (dLV/dLP)t      -1.00467 -1.00303
 (dLV/dLT)p        1.1060   1.0754
 Cp, KJ/(KG)(K)    2.9464   2.7164
 GAMMAs            1.1640   1.1703
 SON VEL,M/SEC     1103.9   1063.3
 MACH NUMBER        0.000    1.000

 TRANSPORT PROPERTIES (GASES ONLY)
   CONDUCTIVITY IN UNITS OF MILLIWATTS/(CM)(K)

 VISC,MILLIPOISE  0.98857  0.93623

  WITH EQUILIBRIUM REACTIONS

 Cp, KJ/(KG)(K)    2.9464   2.7164
 CONDUCTIVITY      4.7117   3.9635
 PRANDTL NUMBER    0.6182   0.6417

  WITH FROZEN REACTIONS

 Cp, KJ/(KG)(K)    2.0564   2.0302
 CONDUCTIVITY      2.8215   2.6226
 PRANDTL NUMBER    0.7205   0.7247

 PERFORMANCE PARAMETERS

 Ae/At                      1.0000
 CSTAR, M/SEC               1593.5
 CF                         0.6673
 Ivac, M/SEC                1971.8
 Isp, M/SEC                 1063.3


 MOLE FRACTIONS

 *H               0.00053  0.00026
 HO2              0.00062  0.00036
 *H2              0.00250  0.00151
 H2O              0.53672  0.54669
 H2O2             0.00008  0.00005
 *O               0.00487  0.00288
 *OH              0.04066  0.02857
 *O2              0.41401  0.41968

  * THERMODYNAMIC PROPERTIES FITTED TO 20000.K

 NOTE. WEIGHT FRACTION OF FUEL IN TOTAL FUELS AND OF OXIDANT IN TOTAL OXIDANTS

 WARNING!!  FREEZING IS NOT ALLOWED AT A SUBSONIC PRESSURE RATIO FOR nfz GREATER
 THAN 1. FROZEN PERFORMANCE CALCULATIONS WERE OMITTED (ROCKET)










              THEORETICAL ROCKET PERFORMANCE ASSUMING EQUILIBRIUM

           COMPOSITION DURING EXPANSION FROM INFINITE AREA COMBUSTOR

 Pin =  2939.2 PSIA
 CASE = RS25Jacob______

             REACTANT                    WT FRACTION      ENERGY      TEMP
                                          (SEE NOTE)     KJ/KG-MOL      K  
 FUEL        H2(L)                        1.0000000     -9012.000     20.270
 OXIDANT     O2(L)                        1.0000000    -12979.000     90.170

 O/F=   20.10000  %FUEL=  4.739336  R,EQ.RATIO= 0.394860  PHI,EQ.RATIO= 0.394860

                 CHAMBER   THROAT
 Pinf/P            1.0000   1.7541
 P, BAR            202.65   115.53
 T, K             2980.12  2762.20
 RHO, KG/CU M    1.9423 1 1.2002 1
 H, KJ/KG         -598.26 -1161.73
 U, KJ/KG        -1641.61 -2124.31
 G, KJ/KG        -31589.6 -29886.9
 S, KJ/(KG)(K)    10.3994  10.3994

 M, (1/n)          23.749   23.859
 (dLV/dLP)t      -1.00459 -1.00297
 (dLV/dLT)p        1.1045   1.0741
 Cp, KJ/(KG)(K)    2.9303   2.7014
 GAMMAs            1.1644   1.1708
 SON VEL,M/SEC     1102.2   1061.6
 MACH NUMBER        0.000    1.000

 TRANSPORT PROPERTIES (GASES ONLY)
   CONDUCTIVITY IN UNITS OF MILLIWATTS/(CM)(K)

 VISC,MILLIPOISE  0.98719  0.93480

  WITH EQUILIBRIUM REACTIONS

 Cp, KJ/(KG)(K)    2.9303   2.7014
 CONDUCTIVITY      4.6715   3.9288
 PRANDTL NUMBER    0.6192   0.6427

  WITH FROZEN REACTIONS

 Cp, KJ/(KG)(K)    2.0519   2.0256
 CONDUCTIVITY      2.8114   2.6127
 PRANDTL NUMBER    0.7205   0.7247

 PERFORMANCE PARAMETERS

 Ae/At                      1.0000
 CSTAR, M/SEC               1590.6
 CF                         0.6674
 Ivac, M/SEC                1968.3
 Isp, M/SEC                 1061.6


 MOLE FRACTIONS

 *H               0.00052  0.00025
 HO2              0.00061  0.00035
 *H2              0.00244  0.00146
 H2O              0.53518  0.54505
 H2O2             0.00008  0.00005
 *O               0.00479  0.00282
 *OH              0.04014  0.02812
 *O2              0.41624  0.42189

  * THERMODYNAMIC PROPERTIES FITTED TO 20000.K

 NOTE. WEIGHT FRACTION OF FUEL IN TOTAL FUELS AND OF OXIDANT IN TOTAL OXIDANTS

 WARNING!!  FREEZING IS NOT ALLOWED AT A SUBSONIC PRESSURE RATIO FOR nfz GREATER
 THAN 1. FROZEN PERFORMANCE CALCULATIONS WERE OMITTED (ROCKET)



